@<TRIPOS>MOLECULE
*****
 87 58 0 0 0
SMALL
GASTEIGER

@<TRIPOS>ATOM
      1 O          -1.4317    0.3144   -0.4439 O.3     1  HOH1       -0.4105
      2 H          -1.4987    1.2116   -0.0840 H       0  HOH0        0.2052
      3 H          -1.0898    0.4469   -1.3408 H       0  HOH0        0.2052
      4 O          -0.8895    0.1527    2.7238 O.3     2  HOH2       -0.4105
      5 H          -1.1603   -0.5196    3.3670 H       0  HOH0        0.2052
      6 H          -0.7222    0.9395    3.2640 H       0  HOH0        0.2052
      7 O          -0.3071   -0.4244    6.5442 O.3     3  HOH3       -0.4105
      8 H           0.4453   -1.0344    6.5717 H       0  HOH0        0.2052
      9 H           0.0897    0.4259    6.3023 H       0  HOH0        0.2052
     10 O           0.3365    3.6434   -0.9223 O.3     4  HOH4       -0.4105
     11 H           0.2639    4.6052   -0.8300 H       0  HOH0        0.2052
     12 H          -0.0620    3.4603   -1.7864 H       0  HOH0        0.2052
     13 O          -1.5196    3.8720    2.6262 O.3     5  HOH5       -0.4105
     14 H          -1.3195    4.7889    2.8674 H       0  HOH0        0.2052
     15 H          -1.2103    3.7980    1.7108 H       0  HOH0        0.2052
     16 O          -1.5101    4.0681    6.4015 O.3     6  HOH6       -0.4105
     17 H          -1.1121    4.8543    5.9986 H       0  HOH0        0.2052
     18 H          -1.4565    3.3959    5.7057 H       0  HOH0        0.2052
     19 O          -1.3771    7.4181    0.1445 O.3     7  HOH7       -0.4105
     20 H          -1.1507    8.3597    0.1750 H       0  HOH0        0.2052
     21 H          -1.2345    7.1729   -0.7820 H       0  HOH0        0.2052
     22 O           0.6967    6.7946    2.4882 O.3     8  HOH8       -0.4105
     23 H           0.8339    7.7508    2.4120 H       0  HOH0        0.2052
     24 H           1.0880    6.4366    1.6773 H       0  HOH0        0.2052
     25 O          -0.6471    8.1365    5.1684 O.3     9  HOH9       -0.4105
     26 H          -1.0417    8.2060    6.0507 H       0  HOH0        0.2052
     27 H          -1.3177    7.6688    4.6483 H       0  HOH0        0.2052
     28 O           1.5446    0.3938    0.6341 O.3    10  HOH10      -0.4105
     29 H           1.6700    1.1302    0.0168 H       0  HOH0        0.2052
     30 H           1.6195   -0.3948    0.0761 H       0  HOH0        0.2052
     31 O           1.8977   -1.0676    3.8388 O.3    11  HOH11      -0.4105
     32 H           2.1126   -0.1478    3.6226 H       0  HOH0        0.2052
     33 H           1.8726   -1.5108    2.9774 H       0  HOH0        0.2052
     34 O           3.5002    0.1736    6.8720 O.3    12  HOH12      -0.4105
     35 H           3.1062    0.7709    6.2186 H       0  HOH0        0.2052
     36 H           3.6652   -0.6415    6.3746 H       0  HOH0        0.2052
     37 O           3.2166    3.9028   -0.0295 O.3    13  HOH13      -0.4105
     38 H           3.1740    4.8354    0.2303 H       0  HOH0        0.2052
     39 H           3.7579    3.9082   -0.8332 H       0  HOH0        0.2052
     40 O           1.3469    3.1586    3.2176 O.3    14  HOH14      -0.4105
     41 H           1.8015    4.0144    3.2171 H       0  HOH0        0.2052
     42 H           1.8615    2.6199    2.5979 H       0  HOH0        0.2052
     43 O           1.3799    2.9816    7.0681 O.3    15  HOH15      -0.4105
     44 H           1.8042    3.6986    7.5628 H       0  HOH0        0.2052
     45 H           1.5564    3.2006    6.1408 H       0  HOH0        0.2052
     46 O           2.0577    7.1325   -0.9922 O.3    16  HOH16      -0.4105
     47 H           1.6948    8.0090   -1.1893 H       0  HOH0        0.2052
     48 H           2.4996    6.8717   -1.8142 H       0  HOH0        0.2052
     49 O           3.3976    6.8929    4.0863 O.3    17  HOH17      -0.4105
     50 H           3.3489    7.8513    4.2209 H       0  HOH0        0.2052
     51 H           3.7126    6.8003    3.1746 H       0  HOH0        0.2052
     52 O           1.3253    6.5453    7.2177 O.3    18  HOH18      -0.4105
     53 H           1.6885    7.4193    7.4256 H       0  HOH0        0.2052
     54 H           1.6211    6.3787    6.3101 H       0  HOH0        0.2052
     55 O           4.7654    0.4285   -0.2768 O.3    19  HOH19      -0.4105
     56 H           4.8452    1.3083    0.1214 H       0  HOH0        0.2052
     57 H           5.0563    0.5584   -1.1919 H       0  HOH0        0.2052
     58 O           5.0249    1.0767    3.5385 O.3    20  HOH20      -0.4105
     59 H           5.5142    1.7924    3.1056 H       0  HOH0        0.2052
     60 H           5.1531    0.3168    2.9511 H       0  HOH0        0.2052
     61 O           6.7196    0.6342    6.9406 O.3    21  HOH21      -0.4105
     62 H           6.4130    1.0761    6.1345 H       0  HOH0        0.2052
     63 H           7.0304   -0.2295    6.6303 H       0  HOH0        0.2052
     64 O           7.1742    3.7608   -0.1054 O.3    22  HOH22      -0.4105
     65 H           7.0255    4.7109   -0.2245 H       0  HOH0        0.2052
     66 H           6.9418    3.3779   -0.9646 H       0  HOH0        0.2052
     67 O           4.6821    4.2886    2.6764 O.3    23  HOH23      -0.4105
     68 H           5.2368    4.5273    3.4342 H       0  HOH0        0.2052
     69 H           5.3104    4.2056    1.9434 H       0  HOH0        0.2052
     70 O           4.6636    3.2253    6.4046 O.3    24  HOH24      -0.4105
     71 H           4.7652    3.1991    7.3679 H       0  HOH0        0.2052
     72 H           4.5350    4.1654    6.2083 H       0  HOH0        0.2052
     73 O           4.8868    7.2360    0.4524 O.3    25  HOH25      -0.4105
     74 H           4.6684    8.1471    0.6997 H       0  HOH0        0.2052
     75 H           5.3461    7.3274   -0.3958 H       0  HOH0        0.2052
     76 O           6.8905    6.8984    3.6499 O.3    26  HOH26      -0.4105
     77 H           6.7804    7.8592    3.5905 H       0  HOH0        0.2052
     78 H           6.8378    6.5994    2.7297 H       0  HOH0        0.2052
     79 O           4.8067    6.9926    7.1225 O.3    27  HOH27      -0.4105
     80 H           4.6468    7.9464    7.1818 H       0  HOH0        0.2052
     81 H           5.2838    6.8868    6.2858 H       0  HOH0        0.2052
     82 O           7.8424   -0.0818    0.4032 O.3    28  HOH28      -0.4105
     83 H           7.7578    0.7986    0.7991 H       0  HOH0        0.2052
     84 H           8.2783    0.0843   -0.4461 H       0  HOH0        0.2052
     85 O           7.8734    3.4978    6.9403 O.3    29  HOH29      -0.4105
     86 H           7.9778    4.3410    7.4062 H       0  HOH0        0.2052
     87 H           7.9160    3.7412    6.0034 H       0  HOH0        0.2052
@<TRIPOS>BOND
     1     1     2    1
     2     1     3    1
     3     4     5    1
     4     4     6    1
     5     7     8    1
     6     7     9    1
     7    10    11    1
     8    10    12    1
     9    13    14    1
    10    13    15    1
    11    16    17    1
    12    16    18    1
    13    19    20    1
    14    19    21    1
    15    22    23    1
    16    22    24    1
    17    25    26    1
    18    25    27    1
    19    28    29    1
    20    28    30    1
    21    31    32    1
    22    31    33    1
    23    34    35    1
    24    34    36    1
    25    37    38    1
    26    37    39    1
    27    40    41    1
    28    40    42    1
    29    43    44    1
    30    43    45    1
    31    46    47    1
    32    46    48    1
    33    49    50    1
    34    49    51    1
    35    52    53    1
    36    52    54    1
    37    55    56    1
    38    55    57    1
    39    58    59    1
    40    58    60    1
    41    61    62    1
    42    61    63    1
    43    64    65    1
    44    64    66    1
    45    67    68    1
    46    67    69    1
    47    70    71    1
    48    70    72    1
    49    73    74    1
    50    73    75    1
    51    76    77    1
    52    76    78    1
    53    79    80    1
    54    79    81    1
    55    82    83    1
    56    82    84    1
    57    85    86    1
    58    85    87    1
