@<TRIPOS>MOLECULE
*****
 375 250 0 0 0
SMALL
GASTEIGER

@<TRIPOS>ATOM
      1 O           1.2000    1.3500    0.7500 O.3     1  HOH1       -0.4105
      2 H           1.4774    2.2429    1.0044 H       0  HOH0        0.2052
      3 H           1.8068    1.1117    0.0331 H       0  HOH0        0.2052
      4 O           0.9342    1.2643    3.0912 O.3     2  HOH2       -0.4105
      5 H           0.8216    0.3113    2.9571 H       0  HOH0        0.2052
      6 H           1.3784    1.3290    3.9500 H       0  HOH0        0.2052
      7 O           2.6099    2.1133    6.6456 O.3     3  HOH3       -0.4105
      8 H           2.3055    1.9944    5.7334 H       0  HOH0        0.2052
      9 H           1.8188    1.9468    7.1799 H       0  HOH0        0.2052
     10 O           2.3890    0.9000    9.2240 O.3     4  HOH4       -0.4105
     11 H           2.0372    1.7929    9.3580 H       0  HOH0        0.2052
     12 H           2.7580    0.6617   10.0877 H       0  HOH0        0.2052
     13 O           1.6978    1.5599   11.7247 O.3     5  HOH5       -0.4105
     14 H           1.8021    1.3152   12.6565 H       0  HOH0        0.2052
     15 H           2.3344    2.2795   11.5991 H       0  HOH0        0.2052
     16 O           1.6146    4.5380    1.1836 O.3     6  HOH6       -0.4105
     17 H           1.7178    5.1131    1.9566 H       0  HOH0        0.2052
     18 H           0.7018    4.6922    0.8973 H       0  HOH0        0.2052
     19 O           1.4327    4.5910    4.0047 O.3     7  HOH7       -0.4105
     20 H           0.7185    3.9635    3.8174 H       0  HOH0        0.2052
     21 H           0.9829    5.3387    4.4261 H       0  HOH0        0.2052
     22 O           2.6824    4.2540    6.7956 O.3     8  HOH8       -0.4105
     23 H           2.6547    4.5795    5.8834 H       0  HOH0        0.2052
     24 H           2.7471    5.0598    7.3299 H       0  HOH0        0.2052
     25 O           1.6016    5.0039    9.5617 O.3     9  HOH9       -0.4105
     26 H           1.6051    5.3682   10.4595 H       0  HOH0        0.2052
     27 H           0.8275    4.4212    9.5484 H       0  HOH0        0.2052
     28 O           1.3618    4.3169   12.9554 O.3    10  HOH10      -0.4105
     29 H           1.8874    5.0536   12.6089 H       0  HOH0        0.2052
     30 H           0.7850    4.0728   12.2160 H       0  HOH0        0.2052
     31 O           1.4059    8.2525    1.0225 O.3    11  HOH11      -0.4105
     32 H           0.5461    8.6027    1.3001 H       0  HOH0        0.2052
     33 H           1.1821    7.5768    0.3650 H       0  HOH0        0.2052
     34 O           1.3013    7.3143    3.5319 O.3    12  HOH12      -0.4105
     35 H           0.6520    7.0444    2.8652 H       0  HOH0        0.2052
     36 H           1.1809    8.2733    3.6011 H       0  HOH0        0.2052
     37 O           2.2500    8.6796    6.1956 O.3    13  HOH13      -0.4105
     38 H           2.5274    8.5069    5.2834 H       0  HOH0        0.2052
     39 H           2.8568    8.1455    6.7299 H       0  HOH0        0.2052
     40 O           1.6225    8.6034    9.3555 O.3    14  HOH14      -0.4105
     41 H           1.7941    8.6160    8.4019 H       0  HOH0        0.2052
     42 H           1.5177    7.6626    9.5622 H       0  HOH0        0.2052
     43 O           1.2748    7.5617   12.6175 O.3    15  HOH15      -0.4105
     44 H           0.4902    8.0923   12.4130 H       0  HOH0        0.2052
     45 H           1.3692    6.9780   11.8498 H       0  HOH0        0.2052
     46 O           1.3146   10.9638    0.2836 O.3    16  HOH16      -0.4105
     47 H           1.4178   11.5389    1.0566 H       0  HOH0        0.2052
     48 H           0.4018   11.1180   -0.0027 H       0  HOH0        0.2052
     49 O           0.5164   10.6818    2.9353 O.3    17  HOH17      -0.4105
     50 H           0.8587   11.3987    3.4901 H       0  HOH0        0.2052
     51 H           1.3091   10.1902    2.6727 H       0  HOH0        0.2052
     52 O           1.6324   10.8298    6.6456 O.3    18  HOH18      -0.4105
     53 H           1.6047   11.1553    5.7334 H       0  HOH0        0.2052
     54 H           1.6971   11.6356    7.1799 H       0  HOH0        0.2052
     55 O           0.5321   10.5576    9.3740 O.3    19  HOH19      -0.4105
     56 H           1.3077   11.1227    9.5080 H       0  HOH0        0.2052
     57 H           0.3944   10.1404   10.2377 H       0  HOH0        0.2052
     58 O           0.9295   11.5870   12.1652 O.3    20  HOH20      -0.4105
     59 H           0.4836   10.8067   12.5273 H       0  HOH0        0.2052
     60 H           1.7211   11.2270   11.7378 H       0  HOH0        0.2052
     61 O           0.7500   13.4516    0.3000 O.3    21  HOH21      -0.4105
     62 H           1.0274   14.3445    0.5544 H       0  HOH0        0.2052
     63 H           1.3568   13.2133   -0.4169 H       0  HOH0        0.2052
     64 O           0.8083   13.5563    3.1248 O.3    22  HOH22      -0.4105
     65 H           0.6781   13.5946    4.0842 H       0  HOH0        0.2052
     66 H           0.2979   14.3085    2.7891 H       0  HOH0        0.2052
     67 O           0.5376   14.2813    6.8665 O.3    23  HOH23      -0.4105
     68 H          -0.3815   14.1919    7.1599 H       0  HOH0        0.2052
     69 H           0.7281   13.4361    6.4325 H       0  HOH0        0.2052
     70 O           1.1122   14.0958    9.5649 O.3    24  HOH24      -0.4105
     71 H           1.2186   13.2796    9.0535 H       0  HOH0        0.2052
     72 H           0.3534   14.5340    9.1512 H       0  HOH0        0.2052
     73 O           1.5557   13.7144   12.1637 O.3    25  HOH25      -0.4105
     74 H           1.2714   13.8685   13.0771 H       0  HOH0        0.2052
     75 H           0.7571   13.8765   11.6395 H       0  HOH0        0.2052
     76 O           4.3457    1.7743    0.8164 O.3    26  HOH26      -0.4105
     77 H           3.5012    1.7256    1.2892 H       0  HOH0        0.2052
     78 H           4.9677    2.1047    1.4819 H       0  HOH0        0.2052
     79 O           3.4565    0.3775    3.3487 O.3    27  HOH27      -0.4105
     80 H           4.0800    0.3112    2.6099 H       0  HOH0        0.2052
     81 H           3.4780    1.3159    3.5896 H       0  HOH0        0.2052
     82 O           4.3142    0.2261    6.3456 O.3    28  HOH28      -0.4105
     83 H           4.0356    0.0555    5.4334 H       0  HOH0        0.2052
     84 H           3.5648   -0.0770    6.8799 H       0  HOH0        0.2052
     85 O           4.6554    1.5409    8.0459 O.3    29  HOH29      -0.4105
     86 H           4.4613    0.8159    8.6589 H       0  HOH0        0.2052
     87 H           5.4979    1.8978    8.3648 H       0  HOH0        0.2052
     88 O           4.6849    1.0596   11.8185 O.3    30  HOH30      -0.4105
     89 H           4.1262    1.2439   12.5884 H       0  HOH0        0.2052
     90 H           4.4535    0.1511   11.5735 H       0  HOH0        0.2052
     91 O           4.1386    4.7901    0.0958 O.3    31  HOH31      -0.4105
     92 H           4.6642    4.6401   -0.7043 H       0  HOH0        0.2052
     93 H           3.5618    4.0131    0.1460 H       0  HOH0        0.2052
     94 O           3.5007    3.4449    3.3999 O.3    32  HOH32      -0.4105
     95 H           3.2574    3.7453    2.5114 H       0  HOH0        0.2052
     96 H           4.2565    4.0031    3.6369 H       0  HOH0        0.2052
     97 O           4.4268    2.3129    5.4738 O.3    33  HOH33      -0.4105
     98 H           4.7042    3.2058    5.7282 H       0  HOH0        0.2052
     99 H           5.0336    2.0746    4.7569 H       0  HOH0        0.2052
    100 O           4.4487    4.1386    8.8557 O.3    34  HOH34      -0.4105
    101 H           3.5261    4.3465    9.0669 H       0  HOH0        0.2052
    102 H           4.3898    3.6082    8.0469 H       0  HOH0        0.2052
    103 O           4.2071    3.8619   13.2227 O.3    35  HOH35      -0.4105
    104 H           4.3447    4.6582   12.6879 H       0  HOH0        0.2052
    105 H           3.3627    4.0232   13.6697 H       0  HOH0        0.2052
    106 O           3.3768    7.4758   -0.0000 O.3    36  HOH36      -0.4105
    107 H           3.6542    8.3687    0.2544 H       0  HOH0        0.2052
    108 H           3.9836    7.2375   -0.7169 H       0  HOH0        0.2052
    109 O           3.5981    7.9145    3.5043 O.3    37  HOH37      -0.4105
    110 H           3.4218    7.2967    2.7789 H       0  HOH0        0.2052
    111 H           4.4447    8.3208    3.2651 H       0  HOH0        0.2052
    112 O           4.4268    6.2796    6.7956 O.3    38  HOH38      -0.4105
    113 H           4.7042    6.1069    5.8834 H       0  HOH0        0.2052
    114 H           5.0336    5.7455    7.3299 H       0  HOH0        0.2052
    115 O           4.1268    7.6539    8.3924 O.3    39  HOH39      -0.4105
    116 H           4.4042    7.0264    9.0766 H       0  HOH0        0.2052
    117 H           4.7336    8.4016    8.5006 H       0  HOH0        0.2052
    118 O           4.4346    8.0359   12.4898 O.3    40  HOH40      -0.4105
    119 H           4.8681    8.4547   11.7311 H       0  HOH0        0.2052
    120 H           3.5119    7.9414   12.2094 H       0  HOH0        0.2052
    121 O           3.8966   10.8387    0.1699 O.3    41  HOH41      -0.4105
    122 H           4.2126   11.7316   -0.0346 H       0  HOH0        0.2052
    123 H           3.3555   10.6004   -0.5978 H       0  HOH0        0.2052
    124 O           3.7516   11.0746    3.5068 O.3    42  HOH42      -0.4105
    125 H           2.9670   11.6052    3.3023 H       0  HOH0        0.2052
    126 H           3.8460   10.4909    2.7391 H       0  HOH0        0.2052
    127 O           4.4981    9.7405    5.0464 O.3    43  HOH43      -0.4105
    128 H           4.3218    9.6434    5.9943 H       0  HOH0        0.2052
    129 H           5.3447    9.2868    4.9182 H       0  HOH0        0.2052
    130 O           3.8541   11.5182    7.2101 O.3    44  HOH44      -0.4105
    131 H           4.6739   11.9136    7.5426 H       0  HOH0        0.2052
    132 H           3.8366   10.6389    7.6169 H       0  HOH0        0.2052
    133 O           3.4219   10.2985   12.6227 O.3    45  HOH45      -0.4105
    134 H           4.2272   10.3658   12.0879 H       0  HOH0        0.2052
    135 H           3.3655   11.1564   13.0697 H       0  HOH0        0.2052
    136 O           3.8966   13.9016    0.1699 O.3    46  HOH46      -0.4105
    137 H           4.2126   14.7945   -0.0346 H       0  HOH0        0.2052
    138 H           3.3555   13.6633   -0.5978 H       0  HOH0        0.2052
    139 O           2.9268   14.3641    3.4327 O.3    47  HOH47      -0.4105
    140 H           3.2042   14.8350    2.6326 H       0  HOH0        0.2052
    141 H           3.5336   13.6103    3.4829 H       0  HOH0        0.2052
    142 O           4.4268   12.8516    5.4738 O.3    48  HOH48      -0.4105
    143 H           4.7042   13.7445    5.7282 H       0  HOH0        0.2052
    144 H           5.0336   12.6133    4.7569 H       0  HOH0        0.2052
    145 O           3.2993   13.6025    7.2134 O.3    49  HOH49      -0.4105
    146 H           2.7260   14.3495    6.9848 H       0  HOH0        0.2052
    147 H           3.1893   13.5075    8.1714 H       0  HOH0        0.2052
    148 O           4.2272   13.8233   13.0157 O.3    50  HOH50      -0.4105
    149 H           3.4061   13.7797   13.5284 H       0  HOH0        0.2052
    150 H           4.2812   12.9564   12.5861 H       0  HOH0        0.2052
    151 O           6.6036    0.6000    0.6000 O.3    51  HOH51      -0.4105
    152 H           6.8810    1.4929    0.8544 H       0  HOH0        0.2052
    153 H           7.2104    0.3617   -0.1169 H       0  HOH0        0.2052
    154 O           7.1430    1.0477    2.8793 O.3    52  HOH52      -0.4105
    155 H           6.2032    1.2688    2.9617 H       0  HOH0        0.2052
    156 H           7.3488    0.5881    3.7072 H       0  HOH0        0.2052
    157 O           6.5732    1.2987    6.0784 O.3    53  HOH53      -0.4105
    158 H           6.6645    0.7889    6.8974 H       0  HOH0        0.2052
    159 H           7.4573    1.2670    5.6831 H       0  HOH0        0.2052
    160 O           7.1860    0.7411   10.4325 O.3    54  HOH54      -0.4105
    161 H           7.1583    1.0666    9.5203 H       0  HOH0        0.2052
    162 H           7.2507    1.5469   10.9668 H       0  HOH0        0.2052
    163 O           7.0598    0.3090   13.1337 O.3    55  HOH55      -0.4105
    164 H           6.5063    1.1008   13.0584 H       0  HOH0        0.2052
    165 H           6.6790   -0.3051   12.4882 H       0  HOH0        0.2052
    166 O           7.3182    3.9629    0.6402 O.3    56  HOH56      -0.4105
    167 H           7.4214    4.8558    0.2783 H       0  HOH0        0.2052
    168 H           6.4054    3.7246    0.4190 H       0  HOH0        0.2052
    169 O           6.9806    4.2911    3.3327 O.3    57  HOH57      -0.4105
    170 H           6.5401    3.6645    3.9262 H       0  HOH0        0.2052
    171 H           6.2743    4.5876    2.7393 H       0  HOH0        0.2052
    172 O           6.7360    4.4627    7.1003 O.3    58  HOH58      -0.4105
    173 H           6.7083    3.5013    7.2180 H       0  HOH0        0.2052
    174 H           6.8007    4.5793    6.1406 H       0  HOH0        0.2052
    175 O           7.3482    3.8129    9.5504 O.3    59  HOH59      -0.4105
    176 H           7.3860    4.7058    9.1759 H       0  HOH0        0.2052
    177 H           6.4107    3.5746    9.4933 H       0  HOH0        0.2052
    178 O           6.5125    3.9312   12.6761 O.3    60  HOH60      -0.4105
    179 H           6.9193    3.2552   12.1136 H       0  HOH0        0.2052
    180 H           7.2632    4.4569   12.9906 H       0  HOH0        0.2052
    181 O           6.6725    8.7830    1.2402 O.3    61  HOH61      -0.4105
    182 H           5.8280    8.4752    0.8783 H       0  HOH0        0.2052
    183 H           7.2945    8.0738    1.0190 H       0  HOH0        0.2052
    184 O           7.2909    8.7685    4.0781 O.3    62  HOH62      -0.4105
    185 H           8.1529    9.1786    4.2443 H       0  HOH0        0.2052
    186 H           7.5012    7.8349    3.9258 H       0  HOH0        0.2052
    187 O           6.1536    7.9296    6.7956 O.3    63  HOH63      -0.4105
    188 H           6.4310    7.7569    5.8834 H       0  HOH0        0.2052
    189 H           6.7604    7.3955    7.3299 H       0  HOH0        0.2052
    190 O           6.5558    7.7969    9.3740 O.3    64  HOH64      -0.4105
    191 H           7.5117    7.7113    9.5080 H       0  HOH0        0.2052
    192 H           6.1775    7.5738   10.2377 H       0  HOH0        0.2052
    193 O           6.9492    7.0545   13.0101 O.3    65  HOH65      -0.4105
    194 H           6.4242    7.8606   13.1267 H       0  HOH0        0.2052
    195 H           6.4216    6.3669   13.4434 H       0  HOH0        0.2052
    196 O           7.4682   11.1387    0.4902 O.3    66  HOH66      -0.4105
    197 H           7.5714   12.0316    0.1283 H       0  HOH0        0.2052
    198 H           6.5554   10.9004    0.2690 H       0  HOH0        0.2052
    199 O           6.8225   11.4804    3.3535 O.3    67  HOH67      -0.4105
    200 H           5.9780   11.0526    3.5604 H       0  HOH0        0.2052
    201 H           7.4445   11.0877    3.9843 H       0  HOH0        0.2052
    202 O           6.4536   10.3887    6.6738 O.3    68  HOH68      -0.4105
    203 H           6.7310   11.2816    6.9282 H       0  HOH0        0.2052
    204 H           7.0604   10.1504    5.9569 H       0  HOH0        0.2052
    205 O           6.9373   10.5738    8.9438 O.3    69  HOH69      -0.4105
    206 H           7.8976   10.6689    8.8559 H       0  HOH0        0.2052
    207 H           6.7601    9.6780    8.6199 H       0  HOH0        0.2052
    208 O           6.4536    9.7887   12.1476 O.3    70  HOH70      -0.4105
    209 H           6.7310   10.6816   12.4020 H       0  HOH0        0.2052
    210 H           7.0604    9.5504   11.4307 H       0  HOH0        0.2052
    211 O           7.3182   14.2530    0.4059 O.3    71  HOH71      -0.4105
    212 H           7.4214   14.1274   -0.5493 H       0  HOH0        0.2052
    213 H           6.4054   13.9789    0.5809 H       0  HOH0        0.2052
    214 O           6.7067   14.2330    2.6537 O.3    72  HOH72      -0.4105
    215 H           6.3052   13.4701    3.0961 H       0  HOH0        0.2052
    216 H           7.2331   14.6563    3.3485 H       0  HOH0        0.2052
    217 O           7.0377   13.2864    5.8345 O.3    73  HOH73      -0.4105
    218 H           7.8183   13.0702    6.3661 H       0  HOH0        0.2052
    219 H           7.1890   14.2028    5.5583 H       0  HOH0        0.2052
    220 O           6.4710   12.8711    8.4236 O.3    74  HOH74      -0.4105
    221 H           6.2737   13.5990    7.8151 H       0  HOH0        0.2052
    222 H           6.1503   13.1892    9.2809 H       0  HOH0        0.2052
    223 O           7.7391   12.8790   11.7558 O.3    75  HOH75      -0.4105
    224 H           7.1361   13.5261   12.1514 H       0  HOH0        0.2052
    225 H           7.1698   12.3542   11.1731 H       0  HOH0        0.2052
    226 O           9.0429    1.0244    0.6417 O.3    76  HOH76      -0.4105
    227 H           9.0296    1.7081    1.3282 H       0  HOH0        0.2052
    228 H           9.1529    1.5221   -0.1824 H       0  HOH0        0.2052
    229 O           9.5661    0.5319    3.4365 O.3    77  HOH77      -0.4105
    230 H           9.8457   -0.3944    3.3838 H       0  HOH0        0.2052
    231 H          10.0635    0.9671    2.7279 H       0  HOH0        0.2052
    232 O          10.4678    0.3761    6.6456 O.3    78  HOH78      -0.4105
    233 H          10.1892    0.2055    5.7334 H       0  HOH0        0.2052
    234 H           9.7184    0.0730    7.1799 H       0  HOH0        0.2052
    235 O           9.5808    1.1667    9.5799 O.3    79  HOH79      -0.4105
    236 H           9.2342    1.5016   10.4205 H       0  HOH0        0.2052
    237 H           9.3104    0.2363    9.5692 H       0  HOH0        0.2052
    238 O           9.8398    0.2985   13.3476 O.3    80  HOH80      -0.4105
    239 H          10.7738    0.2548   13.6020 H       0  HOH0        0.2052
    240 H           9.7619   -0.3487   12.6307 H       0  HOH0        0.2052
    241 O           9.4929    4.2373    0.6417 O.3    81  HOH81      -0.4105
    242 H           9.4796    4.9210    1.3282 H       0  HOH0        0.2052
    243 H           9.6029    4.7350   -0.1824 H       0  HOH0        0.2052
    244 O           9.5147    4.1536    3.8398 O.3    82  HOH82      -0.4105
    245 H           9.1111    5.0197    4.0005 H       0  HOH0        0.2052
    246 H           9.0496    3.8200    3.0579 H       0  HOH0        0.2052
    247 O           9.5304    2.3129    5.4738 O.3    83  HOH83      -0.4105
    248 H           9.8078    3.2058    5.7282 H       0  HOH0        0.2052
    249 H          10.1372    2.0746    4.7569 H       0  HOH0        0.2052
    250 O           9.3993    3.3405    8.7279 O.3    84  HOH84      -0.4105
    251 H           9.0484    3.7825    7.9403 H       0  HOH0        0.2052
    252 H           9.6777    4.0703    9.3014 H       0  HOH0        0.2052
    253 O           8.4804    2.3129   13.3476 O.3    85  HOH85      -0.4105
    254 H           8.7578    3.2058   13.6020 H       0  HOH0        0.2052
    255 H           9.0872    2.0746   12.6307 H       0  HOH0        0.2052
    256 O           9.5574    7.8198    0.8870 O.3    86  HOH86      -0.4105
    257 H           9.1912    7.9603    0.0009 H       0  HOH0        0.2052
    258 H           9.3768    8.6519    1.3496 H       0  HOH0        0.2052
    259 O           9.6469    7.3252    3.9839 O.3    87  HOH87      -0.4105
    260 H          10.5164    7.2011    4.3931 H       0  HOH0        0.2052
    261 H           9.7622    8.1057    3.4213 H       0  HOH0        0.2052
    262 O           8.5541    8.6743    6.2823 O.3    88  HOH88      -0.4105
    263 H           8.5430    8.6306    7.2502 H       0  HOH0        0.2052
    264 H           9.2283    8.0271    6.0264 H       0  HOH0        0.2052
    265 O           9.2304    6.2758    8.8107 O.3    89  HOH89      -0.4105
    266 H           9.5078    7.1687    9.0651 H       0  HOH0        0.2052
    267 H           9.8372    6.0375    8.0938 H       0  HOH0        0.2052
    268 O           9.0155    7.3564   13.0209 O.3    90  HOH90      -0.4105
    269 H           9.4551    7.5931   12.1905 H       0  HOH0        0.2052
    270 H           9.6548    6.7824   13.4689 H       0  HOH0        0.2052
    271 O           9.6963   10.9182   -0.1750 O.3    91  HOH91      -0.4105
    272 H           9.5809   11.3136    0.7021 H       0  HOH0        0.2052
    273 H           9.2982   10.0389   -0.0896 H       0  HOH0        0.2052
    274 O          10.2934   11.1735    3.1724 O.3    92  HOH92      -0.4105
    275 H          10.4712   12.0655    3.5066 H       0  HOH0        0.2052
    276 H           9.6108   10.8317    3.7692 H       0  HOH0        0.2052
    277 O           8.9229   11.1309    6.6456 O.3    93  HOH93      -0.4105
    278 H           9.1599   11.3560    5.7334 H       0  HOH0        0.2052
    279 H           9.5926   11.5838    7.1799 H       0  HOH0        0.2052
    280 O           9.7826   11.3098    9.5240 O.3    94  HOH94      -0.4105
    281 H          10.7385   11.2242    9.6580 H       0  HOH0        0.2052
    282 H           9.4043   11.0867   10.3877 H       0  HOH0        0.2052
    283 O           9.1023    9.3912   13.1976 O.3    95  HOH95      -0.4105
    284 H           8.1797    9.2391   13.4520 H       0  HOH0        0.2052
    285 H           9.0434   10.0404   12.4807 H       0  HOH0        0.2052
    286 O          10.3950   13.7516   -0.1098 O.3    96  HOH96      -0.4105
    287 H          10.4982   14.6445   -0.4717 H       0  HOH0        0.2052
    288 H           9.4822   13.5133   -0.3310 H       0  HOH0        0.2052
    289 O           8.4804   13.0297    1.7186 O.3    97  HOH97      -0.4105
    290 H           8.7578   12.4022    2.4028 H       0  HOH0        0.2052
    291 H           9.0872   13.7774    1.8268 H       0  HOH0        0.2052
    292 O           9.5398   14.0501    5.4738 O.3    98  HOH98      -0.4105
    293 H          10.4738   14.0064    5.7282 H       0  HOH0        0.2052
    294 H           9.4619   13.4029    4.7569 H       0  HOH0        0.2052
    295 O           8.5875   12.9237    8.6376 O.3    99  HOH99      -0.4105
    296 H           9.5129   13.2017    8.7102 H       0  HOH0        0.2052
    297 H           8.2250   13.0840    9.5218 H       0  HOH0        0.2052
    298 O          10.3465   13.2303   11.7233 O.3   100  HOH100     -0.4105
    299 H           9.7928   13.2883   10.9302 H       0  HOH0        0.2052
    300 H           9.7861   13.5907   12.4268 H       0  HOH0        0.2052
    301 O          11.7210    1.4050    1.4032 O.3   101  HOH101     -0.4105
    302 H          11.2170    1.9782    0.8063 H       0  HOH0        0.2052
    303 H          12.6177    1.7714    1.3780 H       0  HOH0        0.2052
    304 O          12.0785    0.9000    3.3863 O.3   102  HOH102     -0.4105
    305 H          11.9022    1.7929    3.7188 H       0  HOH0        0.2052
    306 H          12.9251    0.6617    3.7931 H       0  HOH0        0.2052
    307 O          12.6072    0.1538    6.6456 O.3   103  HOH103     -0.4105
    308 H          12.8846   -0.0189    5.7334 H       0  HOH0        0.2052
    309 H          13.2140   -0.3803    7.1799 H       0  HOH0        0.2052
    310 O          12.3770    1.5084    9.9093 O.3   104  HOH104     -0.4105
    311 H          11.5970    1.5004    9.3344 H       0  HOH0        0.2052
    312 H          12.0318    1.2458   10.7758 H       0  HOH0        0.2052
    313 O          12.9072    0.0000   13.1976 O.3   105  HOH105     -0.4105
    314 H          13.1846    0.8929   13.4520 H       0  HOH0        0.2052
    315 H          13.5140   -0.2383   12.4807 H       0  HOH0        0.2052
    316 O          11.8358    4.5754    0.6735 O.3   106  HOH106     -0.4105
    317 H          12.6800    5.0463    0.7406 H       0  HOH0        0.2052
    318 H          11.9400    3.8216    1.2734 H       0  HOH0        0.2052
    319 O          12.0072    4.5754    3.7327 O.3   107  HOH107     -0.4105
    320 H          12.2846    5.0463    2.9326 H       0  HOH0        0.2052
    321 H          12.6140    3.8216    3.7829 H       0  HOH0        0.2052
    322 O          12.3291    2.6386    7.3188 O.3   108  HOH108     -0.4105
    323 H          11.4065    2.8465    7.5300 H       0  HOH0        0.2052
    324 H          12.2702    2.1082    6.5100 H       0  HOH0        0.2052
    325 O          11.7072    5.0254    8.9065 O.3   109  HOH109     -0.4105
    326 H          11.9846    5.4963    8.1064 H       0  HOH0        0.2052
    327 H          12.3140    4.2716    8.9567 H       0  HOH0        0.2052
    328 O          11.7166    2.7614   13.3476 O.3   110  HOH110     -0.4105
    329 H          12.6506    2.7177   13.6020 H       0  HOH0        0.2052
    330 H          11.6387    2.1142   12.6307 H       0  HOH0        0.2052
    331 O          11.5572    8.2258    1.5000 O.3   111  HOH111     -0.4105
    332 H          11.8346    9.1187    1.7544 H       0  HOH0        0.2052
    333 H          12.1640    7.9875    0.7831 H       0  HOH0        0.2052
    334 O          12.2285    7.7758    3.3863 O.3   112  HOH112     -0.4105
    335 H          12.0522    8.6687    3.7188 H       0  HOH0        0.2052
    336 H          13.0751    7.5375    3.7931 H       0  HOH0        0.2052
    337 O          12.3741    8.5318    6.6456 O.3   113  HOH113     -0.4105
    338 H          12.0477    8.5475    5.7334 H       0  HOH0        0.2052
    339 H          11.5840    8.7027    7.1799 H       0  HOH0        0.2052
    340 O          11.7302    8.6779    9.3842 O.3   114  HOH114     -0.4105
    341 H          11.7792    8.4040   10.3123 H       0  HOH0        0.2052
    342 H          12.4964    8.2501    8.9731 H       0  HOH0        0.2052
    343 O          11.9285    7.6339   12.7620 O.3   115  HOH115     -0.4105
    344 H          11.4957    7.1442   12.0466 H       0  HOH0        0.2052
    345 H          12.1316    6.9539   13.4217 H       0  HOH0        0.2052
    346 O          12.3926   11.7205    1.3059 O.3   116  HOH116     -0.4105
    347 H          11.7927   12.0908    1.9706 H       0  HOH0        0.2052
    348 H          11.8206   11.1594    0.7610 H       0  HOH0        0.2052
    349 O          11.8572   10.9887    4.6869 O.3   117  HOH117     -0.4105
    350 H          12.1346   11.8816    4.9413 H       0  HOH0        0.2052
    351 H          12.4640   10.7504    3.9700 H       0  HOH0        0.2052
    352 O          11.8481   12.1971    6.8822 O.3   118  HOH118     -0.4105
    353 H          12.2342   11.4179    7.3097 H       0  HOH0        0.2052
    354 H          11.4736   12.7057    7.6170 H       0  HOH0        0.2052
    355 O          12.0072   11.4387   11.3607 O.3   119  HOH119     -0.4105
    356 H          12.2846   12.3316   11.6151 H       0  HOH0        0.2052
    357 H          12.6140   11.2004   10.6438 H       0  HOH0        0.2052
    358 O          11.2165   10.4616   13.0793 O.3   120  HOH120     -0.4105
    359 H          11.8937   10.5721   13.7635 H       0  HOH0        0.2052
    360 H          10.6456   11.2370   13.1875 H       0  HOH0        0.2052
    361 O          12.8889   13.9296    0.7500 O.3   121  HOH121     -0.4105
    362 H          12.0946   14.4228    1.0044 H       0  HOH0        0.2052
    363 H          13.2723   14.4569    0.0331 H       0  HOH0        0.2052
    364 O          12.1041   13.7507    3.1405 O.3   122  HOH122     -0.4105
    365 H          11.2288   14.0761    2.8818 H       0  HOH0        0.2052
    366 H          12.6729   14.5326    3.0759 H       0  HOH0        0.2052
    367 O          12.5285   14.0516    5.0732 O.3   123  HOH123     -0.4105
    368 H          12.3522   14.9445    5.4057 H       0  HOH0        0.2052
    369 H          13.3751   13.8133    5.4800 H       0  HOH0        0.2052
    370 O          11.8595   13.7611    9.9531 O.3   124  HOH124     -0.4105
    371 H          12.1614   14.4634   10.5486 H       0  HOH0        0.2052
    372 H          11.9849   14.1349    9.0679 H       0  HOH0        0.2052
    373 O          12.9072   14.0516   13.3476 O.3   125  HOH125     -0.4105
    374 H          13.1846   14.9445   13.6020 H       0  HOH0        0.2052
    375 H          13.5140   13.8133   12.6307 H       0  HOH0        0.2052
@<TRIPOS>BOND
     1     1     2    1
     2     1     3    1
     3     4     5    1
     4     4     6    1
     5     7     8    1
     6     7     9    1
     7    10    11    1
     8    10    12    1
     9    13    14    1
    10    13    15    1
    11    16    17    1
    12    16    18    1
    13    19    20    1
    14    19    21    1
    15    22    23    1
    16    22    24    1
    17    25    26    1
    18    25    27    1
    19    28    29    1
    20    28    30    1
    21    31    32    1
    22    31    33    1
    23    34    35    1
    24    34    36    1
    25    37    38    1
    26    37    39    1
    27    40    41    1
    28    40    42    1
    29    43    44    1
    30    43    45    1
    31    46    47    1
    32    46    48    1
    33    49    50    1
    34    49    51    1
    35    52    53    1
    36    52    54    1
    37    55    56    1
    38    55    57    1
    39    58    59    1
    40    58    60    1
    41    61    62    1
    42    61    63    1
    43    64    65    1
    44    64    66    1
    45    67    68    1
    46    67    69    1
    47    70    71    1
    48    70    72    1
    49    73    74    1
    50    73    75    1
    51    76    77    1
    52    76    78    1
    53    79    80    1
    54    79    81    1
    55    82    83    1
    56    82    84    1
    57    85    86    1
    58    85    87    1
    59    88    89    1
    60    88    90    1
    61    91    92    1
    62    91    93    1
    63    94    95    1
    64    94    96    1
    65    97    98    1
    66    97    99    1
    67   100   101    1
    68   100   102    1
    69   103   104    1
    70   103   105    1
    71   106   107    1
    72   106   108    1
    73   109   110    1
    74   109   111    1
    75   112   113    1
    76   112   114    1
    77   115   116    1
    78   115   117    1
    79   118   119    1
    80   118   120    1
    81   121   122    1
    82   121   123    1
    83   124   125    1
    84   124   126    1
    85   127   128    1
    86   127   129    1
    87   130   131    1
    88   130   132    1
    89   133   134    1
    90   133   135    1
    91   136   137    1
    92   136   138    1
    93   139   140    1
    94   139   141    1
    95   142   143    1
    96   142   144    1
    97   145   146    1
    98   145   147    1
    99   148   149    1
   100   148   150    1
   101   151   152    1
   102   151   153    1
   103   154   155    1
   104   154   156    1
   105   157   158    1
   106   157   159    1
   107   160   161    1
   108   160   162    1
   109   163   164    1
   110   163   165    1
   111   166   167    1
   112   166   168    1
   113   169   170    1
   114   169   171    1
   115   172   173    1
   116   172   174    1
   117   175   176    1
   118   175   177    1
   119   178   179    1
   120   178   180    1
   121   181   182    1
   122   181   183    1
   123   184   185    1
   124   184   186    1
   125   187   188    1
   126   187   189    1
   127   190   191    1
   128   190   192    1
   129   193   194    1
   130   193   195    1
   131   196   197    1
   132   196   198    1
   133   199   200    1
   134   199   201    1
   135   202   203    1
   136   202   204    1
   137   205   206    1
   138   205   207    1
   139   208   209    1
   140   208   210    1
   141   211   212    1
   142   211   213    1
   143   214   215    1
   144   214   216    1
   145   217   218    1
   146   217   219    1
   147   220   221    1
   148   220   222    1
   149   223   224    1
   150   223   225    1
   151   226   227    1
   152   226   228    1
   153   229   230    1
   154   229   231    1
   155   232   233    1
   156   232   234    1
   157   235   236    1
   158   235   237    1
   159   238   239    1
   160   238   240    1
   161   241   242    1
   162   241   243    1
   163   244   245    1
   164   244   246    1
   165   247   248    1
   166   247   249    1
   167   250   251    1
   168   250   252    1
   169   253   254    1
   170   253   255    1
   171   256   257    1
   172   256   258    1
   173   259   260    1
   174   259   261    1
   175   262   263    1
   176   262   264    1
   177   265   266    1
   178   265   267    1
   179   268   269    1
   180   268   270    1
   181   271   272    1
   182   271   273    1
   183   274   275    1
   184   274   276    1
   185   277   278    1
   186   277   279    1
   187   280   281    1
   188   280   282    1
   189   283   284    1
   190   283   285    1
   191   286   287    1
   192   286   288    1
   193   289   290    1
   194   289   291    1
   195   292   293    1
   196   292   294    1
   197   295   296    1
   198   295   297    1
   199   298   299    1
   200   298   300    1
   201   301   302    1
   202   301   303    1
   203   304   305    1
   204   304   306    1
   205   307   308    1
   206   307   309    1
   207   310   311    1
   208   310   312    1
   209   313   314    1
   210   313   315    1
   211   316   317    1
   212   316   318    1
   213   319   320    1
   214   319   321    1
   215   322   323    1
   216   322   324    1
   217   325   326    1
   218   325   327    1
   219   328   329    1
   220   328   330    1
   221   331   332    1
   222   331   333    1
   223   334   335    1
   224   334   336    1
   225   337   338    1
   226   337   339    1
   227   340   341    1
   228   340   342    1
   229   343   344    1
   230   343   345    1
   231   346   347    1
   232   346   348    1
   233   349   350    1
   234   349   351    1
   235   352   353    1
   236   352   354    1
   237   355   356    1
   238   355   357    1
   239   358   359    1
   240   358   360    1
   241   361   362    1
   242   361   363    1
   243   364   365    1
   244   364   366    1
   245   367   368    1
   246   367   369    1
   247   370   371    1
   248   370   372    1
   249   373   374    1
   250   373   375    1
