@<TRIPOS>MOLECULE
*****
 444 296 0 0 0
SMALL
GASTEIGER

@<TRIPOS>ATOM
      1 O          -1.4675   -1.2950   -1.8038 O.3     1  HOH1       -0.4105
      2 H          -1.5087   -1.5198   -0.8622 H       0  HOH0        0.2052
      3 H          -1.5185   -0.3275   -1.8160 H       0  HOH0        0.2052
      4 O          -0.4484   -1.5148    1.3621 O.3     2  HOH2       -0.4105
      5 H           0.0908   -1.4982    2.1671 H       0  HOH0        0.2052
      6 H           0.1988   -1.4359    0.6452 H       0  HOH0        0.2052
      7 O          -1.5141   -0.2206    3.7494 O.3     3  HOH3       -0.4105
      8 H          -0.7466    0.0717    4.2636 H       0  HOH0        0.2052
      9 H          -1.5191   -1.1829    3.8628 H       0  HOH0        0.2052
     10 O          -1.5191   -1.2813    6.4027 O.3     4  HOH4       -0.4105
     11 H          -1.5150   -0.3123    6.4031 H       0  HOH0        0.2052
     12 H          -0.6285   -1.5193    6.7011 H       0  HOH0        0.2052
     13 O          -1.4852   -1.3278    9.6206 O.3     5  HOH5       -0.4105
     14 H          -1.5190   -0.3598    9.5922 H       0  HOH0        0.2052
     15 H          -0.6936   -1.5191   10.1458 H       0  HOH0        0.2052
     16 O          -1.5197    1.9784   -1.5615 O.3     6  HOH6       -0.4105
     17 H          -0.6742    2.4483   -1.6190 H       0  HOH0        0.2052
     18 H          -1.4746    1.5186   -0.7097 H       0  HOH0        0.2052
     19 O          -1.5092    3.0766    1.2269 O.3     7  HOH7       -0.4105
     20 H          -1.5197    3.5027    2.0971 H       0  HOH0        0.2052
     21 H          -0.6045    3.2156    0.9091 H       0  HOH0        0.2052
     22 O          -1.5193    2.4303    4.5491 O.3     8  HOH8       -0.4105
     23 H          -1.4119    3.2234    5.0952 H       0  HOH0        0.2052
     24 H          -0.8252    2.5123    3.8780 H       0  HOH0        0.2052
     25 O          -0.9340    1.7953    7.3545 O.3     9  HOH9       -0.4105
     26 H          -0.1533    2.1473    7.8078 H       0  HOH0        0.2052
     27 H          -1.3976    1.2938    8.0419 H       0  HOH0        0.2052
     28 O          -1.5159    3.6597   10.0354 O.3    10  HOH10      -0.4105
     29 H          -0.7520    3.8220   10.6090 H       0  HOH0        0.2052
     30 H          -1.4240    2.7293    9.7807 H       0  HOH0        0.2052
     31 O          -1.5183    1.1084   12.1942 O.3    11  HOH11      -0.4105
     32 H          -1.5191    2.0305   11.8963 H       0  HOH0        0.2052
     33 H          -0.8070    0.6971   11.6805 H       0  HOH0        0.2052
     34 O          -0.6187    4.9349   -1.8168 O.3    12  HOH12      -0.4105
     35 H          -0.2050    4.8539   -0.9443 H       0  HOH0        0.2052
     36 H          -1.4327    5.4316   -1.6447 H       0  HOH0        0.2052
     37 O          -1.5069    5.8806    1.3813 O.3    13  HOH13      -0.4105
     38 H          -0.6016    5.5436    1.4571 H       0  HOH0        0.2052
     39 H          -1.5191    6.3276    0.5216 H       0  HOH0        0.2052
     40 O          -0.6595    5.4014    4.0481 O.3    14  HOH14      -0.4105
     41 H          -0.2791    4.5659    3.7378 H       0  HOH0        0.2052
     42 H           0.1060    5.9036    4.3654 H       0  HOH0        0.2052
     43 O          -1.5195    4.5619    7.2333 O.3    15  HOH15      -0.4105
     44 H          -0.6744    4.3784    7.6704 H       0  HOH0        0.2052
     45 H          -1.2638    4.8974    6.3610 H       0  HOH0        0.2052
     46 O          -0.5732    6.2871    9.4420 O.3    16  HOH16      -0.4105
     47 H          -1.5199    6.1614    9.2779 H       0  HOH0        0.2052
     48 H          -0.1984    6.4223    8.5587 H       0  HOH0        0.2052
     49 O          -1.5181    8.0532   -1.8156 O.3    17  HOH17      -0.4105
     50 H          -1.1983    7.5984   -1.0220 H       0  HOH0        0.2052
     51 H          -1.0517    8.9025   -1.8027 H       0  HOH0        0.2052
     52 O          -1.5198    9.2393    0.8625 O.3    18  HOH18      -0.4105
     53 H          -0.6487    8.8197    0.7977 H       0  HOH0        0.2052
     54 H          -1.5117    9.9053    0.1588 H       0  HOH0        0.2052
     55 O          -0.5829    8.0221    3.3036 O.3    19  HOH19      -0.4105
     56 H          -0.5412    8.8765    3.7588 H       0  HOH0        0.2052
     57 H          -1.5190    7.9250    3.0732 H       0  HOH0        0.2052
     58 O          -1.5069    7.3991    6.1435 O.3    20  HOH20      -0.4105
     59 H          -1.5199    8.2113    5.6151 H       0  HOH0        0.2052
     60 H          -0.5655    7.1801    6.2130 H       0  HOH0        0.2052
     61 O          -1.5190    8.7157    8.5594 O.3    21  HOH21      -0.4105
     62 H          -1.4732    8.6366    9.5241 H       0  HOH0        0.2052
     63 H          -0.6939    9.1648    8.3220 H       0  HOH0        0.2052
     64 O          -1.5200    9.0211   12.0835 O.3    22  HOH22      -0.4105
     65 H          -1.4620    8.1210   11.7292 H       0  HOH0        0.2052
     66 H          -0.7334    9.4629   11.7298 H       0  HOH0        0.2052
     67 O          -1.3563   12.2680   -1.8165 O.3    23  HOH23      -0.4105
     68 H          -1.0341   11.3880   -1.5700 H       0  HOH0        0.2052
     69 H          -1.5184   12.7045   -0.9667 H       0  HOH0        0.2052
     70 O           0.2300   11.8706    0.8233 O.3    24  HOH24      -0.4105
     71 H           0.3454   12.2167    1.7210 H       0  HOH0        0.2052
     72 H          -0.7224   11.7049    0.7570 H       0  HOH0        0.2052
     73 O          -1.5199   11.2623    3.2505 O.3    25  HOH25      -0.4105
     74 H          -0.6287   10.8833    3.2836 H       0  HOH0        0.2052
     75 H          -1.5140   11.9357    3.9472 H       0  HOH0        0.2052
     76 O          -0.5864   10.6361    6.0024 O.3    26  HOH26      -0.4105
     77 H          -1.4167   10.6497    6.5018 H       0  HOH0        0.2052
     78 H          -0.1478    9.8247    6.2996 H       0  HOH0        0.2052
     79 O          -1.5187   11.4955    9.1172 O.3    27  HOH27      -0.4105
     80 H          -1.3644   10.8548    9.8275 H       0  HOH0        0.2052
     81 H          -0.8265   11.2973    8.4687 H       0  HOH0        0.2052
     82 O          -0.6865   12.0372   12.1061 O.3    28  HOH28      -0.4105
     83 H          -1.5200   11.5663   12.2563 H       0  HOH0        0.2052
     84 H          -0.8937   12.6574   11.3910 H       0  HOH0        0.2052
     85 O           1.1762    0.1362   -1.2544 O.3    29  HOH29      -0.4105
     86 H           1.9085    0.3929   -0.6740 H       0  HOH0        0.2052
     87 H           0.3839    0.3306   -0.7314 H       0  HOH0        0.2052
     88 O           2.5922   -0.8263    1.4126 O.3    30  HOH30      -0.4105
     89 H           2.8985   -0.0754    1.9429 H       0  HOH0        0.2052
     90 H           2.4194   -1.5199    2.0669 H       0  HOH0        0.2052
     91 O           1.6085   -1.5192    4.4972 O.3    31  HOH31      -0.4105
     92 H           0.7458   -1.5108    4.9385 H       0  HOH0        0.2052
     93 H           1.8293   -0.5810    4.3971 H       0  HOH0        0.2052
     94 O           1.2783   -0.3531    7.5385 O.3    32  HOH32      -0.4105
     95 H           0.9849    0.0910    6.7288 H       0  HOH0        0.2052
     96 H           0.4965   -0.3371    8.1107 H       0  HOH0        0.2052
     97 O           1.6599   -1.5189   10.9125 O.3    33  HOH33      -0.4105
     98 H           2.1052   -0.7084   11.2017 H       0  HOH0        0.2052
     99 H           1.6607   -1.4541    9.9456 H       0  HOH0        0.2052
    100 O           1.7109    3.0129   -0.4630 O.3    34  HOH34      -0.4105
    101 H           1.0731    2.4029   -0.0630 H       0  HOH0        0.2052
    102 H           1.6808    2.7972   -1.4072 H       0  HOH0        0.2052
    103 O           0.6087    1.3356    2.2060 O.3    35  HOH35      -0.4105
    104 H           0.8538    0.5883    2.7721 H       0  HOH0        0.2052
    105 H           0.3655    0.9218    1.3643 H       0  HOH0        0.2052
    106 O           1.3444    1.9430    5.1580 O.3    36  HOH36      -0.4105
    107 H           1.1672    2.8887    5.0427 H       0  HOH0        0.2052
    108 H           1.8654    1.7054    4.3763 H       0  HOH0        0.2052
    109 O           2.4427    2.4801    7.7355 O.3    37  HOH37      -0.4105
    110 H           3.1675    3.0735    7.9837 H       0  HOH0        0.2052
    111 H           2.8449    1.5987    7.7544 H       0  HOH0        0.2052
    112 O           1.0370    1.5193   10.0575 O.3    38  HOH38      -0.4105
    113 H           0.2116    1.0859    9.7932 H       0  HOH0        0.2052
    114 H           1.7279    0.9085    9.7599 H       0  HOH0        0.2052
    115 O           2.4192    5.5791   -1.8147 O.3    39  HOH39      -0.4105
    116 H           2.8023    6.0030   -1.0321 H       0  HOH0        0.2052
    117 H           2.8117    4.6931   -1.8168 H       0  HOH0        0.2052
    118 O           1.5207    4.0951    2.2501 O.3    40  HOH40      -0.4105
    119 H           1.5497    3.6995    3.1341 H       0  HOH0        0.2052
    120 H           2.4491    4.2853    2.0480 H       0  HOH0        0.2052
    121 O           3.1394    6.1942    4.3322 O.3    41  HOH41      -0.4105
    122 H           2.2753    5.7614    4.2623 H       0  HOH0        0.2052
    123 H           3.2630    6.3177    5.2853 H       0  HOH0        0.2052
    124 O           1.3176    4.9121    6.4417 O.3    42  HOH42      -0.4105
    125 H           1.3559    5.2552    7.3471 H       0  HOH0        0.2052
    126 H           2.2073    4.5609    6.2865 H       0  HOH0        0.2052
    127 O           1.5572    4.5596    9.7576 O.3    43  HOH43      -0.4105
    128 H           1.4509    5.0799   10.5681 H       0  HOH0        0.2052
    129 H           2.3298    4.9540    9.3259 H       0  HOH0        0.2052
    130 O           1.1424    7.9408   -0.7576 O.3    44  HOH44      -0.4105
    131 H           0.9094    8.8814   -0.7506 H       0  HOH0        0.2052
    132 H           1.9735    7.9019   -0.2609 H       0  HOH0        0.2052
    133 O           1.5956    6.8920    1.9513 O.3    45  HOH45      -0.4105
    134 H           1.3633    6.3707    1.1682 H       0  HOH0        0.2052
    135 H           2.5606    6.9673    1.9046 H       0  HOH0        0.2052
    136 O           1.7434    8.7205    4.9452 O.3    46  HOH46      -0.4105
    137 H           2.5369    8.4560    5.4346 H       0  HOH0        0.2052
    138 H           1.7900    8.2038    4.1269 H       0  HOH0        0.2052
    139 O           1.4617    8.0773    7.7077 O.3    47  HOH47      -0.4105
    140 H           2.2649    8.3292    8.1877 H       0  HOH0        0.2052
    141 H           1.7285    7.2980    7.1974 H       0  HOH0        0.2052
    142 O           1.1944    7.9788   10.8528 O.3    48  HOH48      -0.4105
    143 H           1.9511    8.2107   11.4119 H       0  HOH0        0.2052
    144 H           1.5947    7.5384   10.0881 H       0  HOH0        0.2052
    145 O           2.0185   11.7545   -1.8168 O.3    49  HOH49      -0.4105
    146 H           1.3188   11.1020   -1.6632 H       0  HOH0        0.2052
    147 H           2.3697   11.9338   -0.9317 H       0  HOH0        0.2052
    148 O           1.3003    9.7379    1.9354 O.3    50  HOH50      -0.4105
    149 H           1.8951    9.8937    2.6843 H       0  HOH0        0.2052
    150 H           1.8905    9.4457    1.2246 H       0  HOH0        0.2052
    151 O           1.9788   11.9084    4.2630 O.3    51  HOH51      -0.4105
    152 H           2.6142   11.5844    3.6071 H       0  HOH0        0.2052
    153 H           1.2840   11.2329    4.2694 H       0  HOH0        0.2052
    154 O           2.1208   10.8496    7.1035 O.3    52  HOH52      -0.4105
    155 H           2.3668   11.2676    7.9425 H       0  HOH0        0.2052
    156 H           2.7310   10.1008    7.0273 H       0  HOH0        0.2052
    157 O           1.1040   10.9698   10.3149 O.3    53  HOH53      -0.4105
    158 H           1.2270   11.7781    9.7950 H       0  HOH0        0.2052
    159 H           0.9795   10.2787    9.6472 H       0  HOH0        0.2052
    160 O           3.7425   -1.4498   -1.6592 O.3    54  HOH54      -0.4105
    161 H           3.8167   -1.5199   -0.6956 H       0  HOH0        0.2052
    162 H           3.6269   -0.5007   -1.8167 H       0  HOH0        0.2052
    163 O           5.1951    0.2948    0.5545 O.3    55  HOH55      -0.4105
    164 H           4.3542    0.6230    0.2024 H       0  HOH0        0.2052
    165 H           5.7911    0.3110   -0.2094 H       0  HOH0        0.2052
    166 O           4.9040   -1.3523    3.3111 O.3    56  HOH56      -0.4105
    167 H           5.2408   -0.4467    3.3838 H       0  HOH0        0.2052
    168 H           4.8850   -1.5190    2.3567 H       0  HOH0        0.2052
    169 O           3.6518   -1.5189    6.9408 O.3    57  HOH57      -0.4105
    170 H           3.8830   -1.5198    5.9998 H       0  HOH0        0.2052
    171 H           3.8212   -0.6074    7.2226 H       0  HOH0        0.2052
    172 O           4.4037   -1.5129    9.7729 O.3    58  HOH58      -0.4105
    173 H           4.6782   -0.8136    9.1608 H       0  HOH0        0.2052
    174 H           5.0983   -1.5188   10.4484 H       0  HOH0        0.2052
    175 O           4.7225    2.3768   -1.8164 O.3    59  HOH59      -0.4105
    176 H           4.0428    2.5492   -1.1477 H       0  HOH0        0.2052
    177 H           4.8113    1.4119   -1.8167 H       0  HOH0        0.2052
    178 O           4.0789    2.2451    2.2517 O.3    60  HOH60      -0.4105
    179 H           4.4275    1.5423    2.8205 H       0  HOH0        0.2052
    180 H           4.8711    2.6501    1.8679 H       0  HOH0        0.2052
    181 O           4.1945    0.9430    5.3178 O.3    61  HOH61      -0.4105
    182 H           3.7342    0.5022    4.5879 H       0  HOH0        0.2052
    183 H           5.0034    0.4220    5.4331 H       0  HOH0        0.2052
    184 O           5.3841    1.5209    8.0900 O.3    62  HOH62      -0.4105
    185 H           5.4975    2.1861    8.7855 H       0  HOH0        0.2052
    186 H           5.1443    2.0392    7.3072 H       0  HOH0        0.2052
    187 O           4.1188    1.0124   10.9997 O.3    63  HOH63      -0.4105
    188 H           5.0849    0.9998   10.9251 H       0  HOH0        0.2052
    189 H           3.8222    1.3492   10.1409 H       0  HOH0        0.2052
    190 O           4.6283    4.5614    0.3220 O.3    64  HOH64      -0.4105
    191 H           4.6754    4.7139   -0.6337 H       0  HOH0        0.2052
    192 H           5.5504    4.4158    0.5816 H       0  HOH0        0.2052
    193 O           5.0792    6.3149    2.4800 O.3    65  HOH65      -0.4105
    194 H           5.8580    6.8060    2.7819 H       0  HOH0        0.2052
    195 H           5.2527    5.4043    2.7621 H       0  HOH0        0.2052
    196 O           3.9845    3.5558    5.1332 O.3    66  HOH66      -0.4105
    197 H           4.4969    4.3765    5.1861 H       0  HOH0        0.2052
    198 H           3.4253    3.6789    4.3515 H       0  HOH0        0.2052
    199 O           4.7906    5.1140    7.8374 O.3    67  HOH67      -0.4105
    200 H           3.9829    5.1155    7.3021 H       0  HOH0        0.2052
    201 H           5.4536    5.5242    7.2619 H       0  HOH0        0.2052
    202 O           4.3255    3.8774   10.8106 O.3    68  HOH68      -0.4105
    203 H           5.1619    3.5035   11.1259 H       0  HOH0        0.2052
    204 H           4.3295    3.6911    9.8597 H       0  HOH0        0.2052
    205 O           3.8239    8.9556   -1.8155 O.3    69  HOH69      -0.4105
    206 H           3.6143    8.0096   -1.8053 H       0  HOH0        0.2052
    207 H           2.9568    9.3878   -1.7987 H       0  HOH0        0.2052
    208 O           5.2854    7.3792   -0.0839 O.3    70  HOH70      -0.4105
    209 H           5.6124    8.2174    0.2759 H       0  HOH0        0.2052
    210 H           4.3605    7.3462    0.2031 H       0  HOH0        0.2052
    211 O           4.0905    8.7264    2.5035 O.3    71  HOH71      -0.4105
    212 H           3.9663    8.3579    3.3910 H       0  HOH0        0.2052
    213 H           5.0219    8.9933    2.4891 H       0  HOH0        0.2052
    214 O           4.6871    8.0148    7.1323 O.3    72  HOH72      -0.4105
    215 H           5.0719    7.7864    7.9918 H       0  HOH0        0.2052
    216 H           3.9291    7.4170    7.0488 H       0  HOH0        0.2052
    217 O           4.1586    6.7162   10.3423 O.3    73  HOH73      -0.4105
    218 H           3.6726    6.9690    9.5430 H       0  HOH0        0.2052
    219 H           3.4662    6.4276   10.9558 H       0  HOH0        0.2052
    220 O           5.6593   10.9651   -1.8152 O.3    74  HOH74      -0.4105
    221 H           4.7683   11.3409   -1.7539 H       0  HOH0        0.2052
    222 H           6.2311   11.6581   -1.4520 H       0  HOH0        0.2052
    223 O           3.8913   10.5767    0.5004 O.3    75  HOH75      -0.4105
    224 H           3.7937   10.8768    1.4166 H       0  HOH0        0.2052
    225 H           4.8135   10.2840    0.4469 H       0  HOH0        0.2052
    226 O           4.4362   10.1434    4.9683 O.3    76  HOH76      -0.4105
    227 H           4.0993   11.0408    5.1099 H       0  HOH0        0.2052
    228 H           5.0939   10.2486    4.2645 H       0  HOH0        0.2052
    229 O           5.0467   11.5446    7.6665 O.3    77  HOH77      -0.4105
    230 H           4.7922   10.6370    7.4419 H       0  HOH0        0.2052
    231 H           4.5581   11.7296    8.4825 H       0  HOH0        0.2052
    232 O           3.5503    9.6427   10.0732 O.3    78  HOH78      -0.4105
    233 H           4.0325    9.3953    9.2699 H       0  HOH0        0.2052
    234 H           3.2283   10.5374    9.8867 H       0  HOH0        0.2052
    235 O           4.5332   10.7920   12.5666 O.3    79  HOH79      -0.4105
    236 H           4.9520   11.5163   13.0555 H       0  HOH0        0.2052
    237 H           5.0406   10.7416   11.7426 H       0  HOH0        0.2052
    238 O           3.8406   13.0162   10.5146 O.3    80  HOH80      -0.4105
    239 H           4.5336   13.0267   11.1918 H       0  HOH0        0.2052
    240 H           3.0814   12.6142   10.9628 H       0  HOH0        0.2052
    241 O           7.1543   -1.5181   -1.8150 O.3    81  HOH81      -0.4105
    242 H           6.2178   -1.5143   -1.5661 H       0  HOH0        0.2052
    243 H           7.4591   -0.6255   -1.5931 H       0  HOH0        0.2052
    244 O           7.2156   -1.5188    1.2239 O.3    82  HOH82      -0.4105
    245 H           7.5492   -0.8805    0.5757 H       0  HOH0        0.2052
    246 H           7.8358   -1.4461    1.9647 H       0  HOH0        0.2052
    247 O           7.5449   -0.8349    4.2684 O.3    83  HOH83      -0.4105
    248 H           8.1080   -0.0494    4.3389 H       0  HOH0        0.2052
    249 H           8.0376   -1.5197    4.7451 H       0  HOH0        0.2052
    250 O           6.6975   -1.5135    7.1894 O.3    84  HOH84      -0.4105
    251 H           6.2392   -1.5195    6.3356 H       0  HOH0        0.2052
    252 H           6.3534   -0.7245    7.6342 H       0  HOH0        0.2052
    253 O           7.1775   -0.0541    9.9181 O.3    85  HOH85      -0.4105
    254 H           7.5752   -0.9034   10.1620 H       0  HOH0        0.2052
    255 H           7.9359    0.4988    9.6770 H       0  HOH0        0.2052
    256 O           7.4075    2.3723   -0.6124 O.3    86  HOH86      -0.4105
    257 H           8.0086    3.0355   -0.2412 H       0  HOH0        0.2052
    258 H           6.5811    2.5063   -0.1245 H       0  HOH0        0.2052
    259 O           7.5899    1.3288    2.0541 O.3    87  HOH87      -0.4105
    260 H           7.2740    2.2329    1.9067 H       0  HOH0        0.2052
    261 H           6.8169    0.8661    2.4109 H       0  HOH0        0.2052
    262 O           6.5495    2.4703    4.3081 O.3    88  HOH88      -0.4105
    263 H           6.5280    2.9069    5.1729 H       0  HOH0        0.2052
    264 H           6.1892    3.1346    3.7015 H       0  HOH0        0.2052
    265 O           7.8675    1.3144    6.5554 O.3    89  HOH89      -0.4105
    266 H           7.7963    1.2201    7.5171 H       0  HOH0        0.2052
    267 H           7.0540    0.9089    6.2196 H       0  HOH0        0.2052
    268 O           7.8823    3.1482   10.3534 O.3    90  HOH90      -0.4105
    269 H           8.4765    2.5892    9.8305 H       0  HOH0        0.2052
    270 H           7.0036    2.7744   10.1884 H       0  HOH0        0.2052
    271 O           7.0766    4.9806   -1.8160 O.3    91  HOH91      -0.4105
    272 H           6.9347    5.5743   -1.0635 H       0  HOH0        0.2052
    273 H           8.0328    4.8238   -1.8135 H       0  HOH0        0.2052
    274 O           7.7735    5.5753    1.3352 O.3    92  HOH92      -0.4105
    275 H           7.3897    4.8027    1.7766 H       0  HOH0        0.2052
    276 H           7.9471    6.1960    2.0588 H       0  HOH0        0.2052
    277 O           6.6945    5.3606    4.8108 O.3    93  HOH93      -0.4105
    278 H           7.2365    5.0683    5.5589 H       0  HOH0        0.2052
    279 H           7.2751    5.2485    4.0432 H       0  HOH0        0.2052
    280 O           7.4098    3.9901    7.7927 O.3    94  HOH94      -0.4105
    281 H           6.7484    3.5741    7.2196 H       0  HOH0        0.2052
    282 H           8.2433    3.8711    7.3130 H       0  HOH0        0.2052
    283 O           6.8547    5.6733   10.8484 O.3    95  HOH95      -0.4105
    284 H           7.4712    6.4048   11.0024 H       0  HOH0        0.2052
    285 H           6.6458    5.7381    9.9044 H       0  HOH0        0.2052
    286 O           7.4176    8.1193   -1.8166 O.3    96  HOH96      -0.4105
    287 H           7.5710    9.0561   -1.6221 H       0  HOH0        0.2052
    288 H           8.0222    7.6541   -1.2191 H       0  HOH0        0.2052
    289 O           7.5510    9.1632    2.4755 O.3    97  HOH97      -0.4105
    290 H           7.6130   10.1166    2.6370 H       0  HOH0        0.2052
    291 H           7.1554    9.1005    1.5931 H       0  HOH0        0.2052
    292 O           6.6475    8.1243    5.0343 O.3    98  HOH98      -0.4105
    293 H           5.8203    8.0421    4.5364 H       0  HOH0        0.2052
    294 H           6.9630    9.0148    4.8188 H       0  HOH0        0.2052
    295 O           7.6010    7.1042    7.8609 O.3    99  HOH99      -0.4105
    296 H           7.2442    6.8198    7.0060 H       0  HOH0        0.2052
    297 H           8.1012    6.3353    8.1732 H       0  HOH0        0.2052
    298 O           6.3494    8.7555   10.5265 O.3   100  HOH100     -0.4105
    299 H           7.2662    9.0532   10.6255 H       0  HOH0        0.2052
    300 H           6.4069    8.0286    9.8884 H       0  HOH0        0.2052
    301 O           7.8686   11.0633    0.2455 O.3   101  HOH101     -0.4105
    302 H           8.2441   11.8942    0.5733 H       0  HOH0        0.2052
    303 H           8.5622   10.4089    0.4180 H       0  HOH0        0.2052
    304 O           5.7837   11.8524    2.7278 O.3   102  HOH102     -0.4105
    305 H           6.6722   11.9675    3.0970 H       0  HOH0        0.2052
    306 H           5.9377   11.4039    1.8828 H       0  HOH0        0.2052
    307 O           6.9313   11.4362    5.5176 O.3   103  HOH103     -0.4105
    308 H           6.8529   12.3323    5.1573 H       0  HOH0        0.2052
    309 H           7.6504   11.0393    5.0036 H       0  HOH0        0.2052
    310 O           7.4760    9.8988    7.8706 O.3   104  HOH104     -0.4105
    311 H           7.6340    9.6406    6.9501 H       0  HOH0        0.2052
    312 H           6.6411    9.4618    8.0963 H       0  HOH0        0.2052
    313 O           6.6326   11.6823   10.2459 O.3   105  HOH105     -0.4105
    314 H           7.3003   11.6897   10.9481 H       0  HOH0        0.2052
    315 H           7.0975   12.0452    9.4771 H       0  HOH0        0.2052
    316 O          10.0610   -1.3682   -1.7841 O.3   106  HOH106     -0.4105
    317 H          10.4548   -0.4835   -1.8166 H       0  HOH0        0.2052
    318 H           9.9018   -1.5191   -0.8403 H       0  HOH0        0.2052
    319 O           9.9272    0.9183    0.4604 O.3   107  HOH107     -0.4105
    320 H          10.8479    0.6678    0.2919 H       0  HOH0        0.2052
    321 H           9.4667    0.0705    0.5510 H       0  HOH0        0.2052
    322 O          10.3851   -1.5193    2.2633 O.3   108  HOH108     -0.4105
    323 H           9.7532   -1.5149    2.9979 H       0  HOH0        0.2052
    324 H          10.7070   -0.6061    2.2259 H       0  HOH0        0.2052
    325 O          10.3649   -1.5190    5.8746 O.3   109  HOH109     -0.4105
    326 H           9.8193   -0.7379    6.0511 H       0  HOH0        0.2052
    327 H          10.5322   -1.4771    4.9211 H       0  HOH0        0.2052
    328 O           9.5197   -1.5039    8.5157 O.3   110  HOH110     -0.4105
    329 H          10.4749   -1.5193    8.6778 H       0  HOH0        0.2052
    330 H           9.3448   -0.5936    8.2335 H       0  HOH0        0.2052
    331 O          10.2014    2.7328   -1.8010 O.3   111  HOH111     -0.4105
    332 H          10.8856    2.5283   -1.1461 H       0  HOH0        0.2052
    333 H           9.6470    1.9382   -1.8162 H       0  HOH0        0.2052
    334 O           9.7059    3.3560    1.5959 O.3   112  HOH112     -0.4105
    335 H          10.0738    2.8329    2.3239 H       0  HOH0        0.2052
    336 H          10.4328    3.4127    0.9577 H       0  HOH0        0.2052
    337 O          10.4015    0.9804    4.1781 O.3   113  HOH113     -0.4105
    338 H           9.6747    1.1216    3.5530 H       0  HOH0        0.2052
    339 H          10.0367    1.2652    5.0294 H       0  HOH0        0.2052
    340 O          10.1526    2.2534    7.8964 O.3   114  HOH114     -0.4105
    341 H          10.7086    2.6652    8.5747 H       0  HOH0        0.2052
    342 H          10.5525    2.5385    7.0611 H       0  HOH0        0.2052
    343 O          10.3223    0.3692   10.5481 O.3   115  HOH115     -0.4105
    344 H          10.6194   -0.5166   10.8050 H       0  HOH0        0.2052
    345 H          10.8060    0.5498    9.7282 H       0  HOH0        0.2052
    346 O          10.1709    2.5324   12.1997 O.3   116  HOH116     -0.4105
    347 H          10.3798    1.7787   12.7716 H       0  HOH0        0.2052
    348 H          10.9860    2.6772   11.6962 H       0  HOH0        0.2052
    349 O          10.4966    5.4714   -0.5247 O.3   117  HOH117     -0.4105
    350 H          10.5908    5.2806   -1.4700 H       0  HOH0        0.2052
    351 H           9.5997    5.1716   -0.3135 H       0  HOH0        0.2052
    352 O          10.7022    5.7725    2.5272 O.3   118  HOH118     -0.4105
    353 H          11.3023    5.0784    2.8386 H       0  HOH0        0.2052
    354 H          11.2081    6.5903    2.6465 H       0  HOH0        0.2052
    355 O           9.3460    3.8131    4.5208 O.3   119  HOH119     -0.4105
    356 H           9.0169    3.2859    5.2642 H       0  HOH0        0.2052
    357 H          10.2969    3.6273    4.5048 H       0  HOH0        0.2052
    358 O          10.2981    5.1556    6.7344 O.3   120  HOH120     -0.4105
    359 H          10.3482    5.7829    7.4712 H       0  HOH0        0.2052
    360 H          11.1306    4.6628    6.7895 H       0  HOH0        0.2052
    361 O          10.3057    4.6295    9.8840 O.3   121  HOH121     -0.4105
    362 H           9.5446    4.7559    9.2977 H       0  HOH0        0.2052
    363 H          11.0713    4.7276    9.2981 H       0  HOH0        0.2052
    364 O           9.8083    5.2864   12.8447 O.3   122  HOH122     -0.4105
    365 H           9.4606    5.4697   11.9590 H       0  HOH0        0.2052
    366 H          10.7210    5.0034   12.6841 H       0  HOH0        0.2052
    367 O          10.6393    7.9699   -1.8164 O.3   123  HOH123     -0.4105
    368 H           9.9949    8.6286   -1.5168 H       0  HOH0        0.2052
    369 H          11.3127    7.9674   -1.1196 H       0  HOH0        0.2052
    370 O           9.5676    8.0408    0.9156 O.3   124  HOH124     -0.4105
    371 H           9.7288    7.8811    1.8576 H       0  HOH0        0.2052
    372 H          10.0841    8.8374    0.7215 H       0  HOH0        0.2052
    373 O           9.0152    7.0292    4.6543 O.3   125  HOH125     -0.4105
    374 H           9.9531    6.7998    4.7360 H       0  HOH0        0.2052
    375 H           8.9532    7.4557    3.7864 H       0  HOH0        0.2052
    376 O          10.2439    8.1537    7.0207 O.3   126  HOH126     -0.4105
    377 H          10.6060    8.6275    7.7845 H       0  HOH0        0.2052
    378 H          11.0209    7.7496    6.6060 H       0  HOH0        0.2052
    379 O           9.4692    7.6017    9.9598 O.3   127  HOH127     -0.4105
    380 H          10.1094    8.3032   10.1519 H       0  HOH0        0.2052
    381 H           9.9132    7.0555    9.2938 H       0  HOH0        0.2052
    382 O          10.1347    7.9697   12.6501 O.3   128  HOH128     -0.4105
    383 H           9.4339    8.5707   12.3558 H       0  HOH0        0.2052
    384 H          10.9252    8.5294   12.6812 H       0  HOH0        0.2052
    385 O          10.0723   11.2411   -1.8165 O.3   129  HOH129     -0.4105
    386 H           9.3132   10.6389   -1.8007 H       0  HOH0        0.2052
    387 H          10.7977   10.7129   -1.4507 H       0  HOH0        0.2052
    388 O          10.4272   11.4383    1.7141 O.3   130  HOH130     -0.4105
    389 H          11.1414   11.7487    2.2907 H       0  HOH0        0.2052
    390 H          10.8881   10.9704    1.0017 H       0  HOH0        0.2052
    391 O          10.3488    9.6656    4.1138 O.3   131  HOH131     -0.4105
    392 H          10.3801    9.4712    3.1651 H       0  HOH0        0.2052
    393 H           9.4016    9.7237    4.3098 H       0  HOH0        0.2052
    394 O           9.7531   10.9360    6.6741 O.3   132  HOH132     -0.4105
    395 H           9.8264   11.9022    6.6831 H       0  HOH0        0.2052
    396 H          10.6096   10.6395    6.3314 H       0  HOH0        0.2052
    397 O           9.3468   10.6838    9.7522 O.3   133  HOH133     -0.4105
    398 H           9.9660   11.3591   10.0675 H       0  HOH0        0.2052
    399 H           9.8684   10.1633    9.1230 H       0  HOH0        0.2052
    400 O           9.2044   12.6868    4.1525 O.3   134  HOH134     -0.4105
    401 H          10.0469   12.2212    4.2633 H       0  HOH0        0.2052
    402 H           9.1214   13.2160    4.9600 H       0  HOH0        0.2052
    403 O          12.7934   -1.5194   -0.0877 O.3   135  HOH135     -0.4105
    404 H          13.3519   -0.7637    0.1488 H       0  HOH0        0.2052
    405 H          11.9193   -1.2810    0.2557 H       0  HOH0        0.2052
    406 O          13.0805    0.2854    2.4456 O.3   136  HOH136     -0.4105
    407 H          12.9745   -0.6771    2.4098 H       0  HOH0        0.2052
    408 H          12.5545    0.6068    1.6980 H       0  HOH0        0.2052
    409 O          12.1468    0.3475    7.4897 O.3   137  HOH137     -0.4105
    410 H          11.7039    0.5744    6.6582 H       0  HOH0        0.2052
    411 H          12.2979   -0.6072    7.4215 H       0  HOH0        0.2052
    412 O          12.7210   -0.0952   12.5934 O.3   138  HOH138     -0.4105
    413 H          12.0091    0.2984   13.1199 H       0  HOH0        0.2052
    414 H          12.4029   -0.9901   12.4014 H       0  HOH0        0.2052
    415 O          13.2118    3.8478   -1.0106 O.3   139  HOH139     -0.4105
    416 H          12.5455    3.8036   -0.3085 H       0  HOH0        0.2052
    417 H          12.6941    4.0007   -1.8153 H       0  HOH0        0.2052
    418 O          12.8782    4.5002   11.1583 O.3   140  HOH140     -0.4105
    419 H          12.4679    5.3774   11.1908 H       0  HOH0        0.2052
    420 H          13.0407    4.3526   10.2146 H       0  HOH0        0.2052
    421 O          12.6043    8.8607    1.5471 O.3   141  HOH141     -0.4105
    422 H          12.3109    8.4340    2.3661 H       0  HOH0        0.2052
    423 H          12.4462    8.1911    0.8647 H       0  HOH0        0.2052
    424 O          12.6349    7.2937    4.6687 O.3   142  HOH142     -0.4105
    425 H          12.2089    8.1637    4.6894 H       0  HOH0        0.2052
    426 H          13.0626    7.2218    5.5353 H       0  HOH0        0.2052
    427 O          13.2830    9.1336    7.4892 O.3   143  HOH143     -0.4105
    428 H          12.8262    9.2277    6.6398 H       0  HOH0        0.2052
    429 H          12.8988    8.3316    7.8740 H       0  HOH0        0.2052
    430 O          12.7410    7.6642   10.4901 O.3   144  HOH144     -0.4105
    431 H          13.0224    8.5343   10.1698 H       0  HOH0        0.2052
    432 H          12.0727    7.3831    9.8472 H       0  HOH0        0.2052
    433 O          13.3265   11.8389    1.0284 O.3   145  HOH145     -0.4105
    434 H          13.2119   11.1690    0.3377 H       0  HOH0        0.2052
    435 H          13.3016   11.3312    1.8533 H       0  HOH0        0.2052
    436 O          12.6313   11.5038    4.9930 O.3   146  HOH146     -0.4105
    437 H          13.4228   11.9010    5.3862 H       0  HOH0        0.2052
    438 H          12.8484   11.4323    4.0513 H       0  HOH0        0.2052
    439 O          12.2411   11.6437    7.9537 O.3   147  HOH147     -0.4105
    440 H          11.6316   12.3941    7.8875 H       0  HOH0        0.2052
    441 H          11.7661   11.0043    8.5055 H       0  HOH0        0.2052
    442 O          11.7904   10.5864   11.4598 O.3   148  HOH148     -0.4105
    443 H          11.7886   11.5513   11.3714 H       0  HOH0        0.2052
    444 H          11.8548   10.2678   10.5470 H       0  HOH0        0.2052
@<TRIPOS>BOND
     1     1     2    1
     2     1     3    1
     3     4     5    1
     4     4     6    1
     5     7     8    1
     6     7     9    1
     7    10    11    1
     8    10    12    1
     9    13    14    1
    10    13    15    1
    11    16    17    1
    12    16    18    1
    13    19    20    1
    14    19    21    1
    15    22    23    1
    16    22    24    1
    17    25    26    1
    18    25    27    1
    19    28    29    1
    20    28    30    1
    21    31    32    1
    22    31    33    1
    23    34    35    1
    24    34    36    1
    25    37    38    1
    26    37    39    1
    27    40    41    1
    28    40    42    1
    29    43    44    1
    30    43    45    1
    31    46    47    1
    32    46    48    1
    33    49    50    1
    34    49    51    1
    35    52    53    1
    36    52    54    1
    37    55    56    1
    38    55    57    1
    39    58    59    1
    40    58    60    1
    41    61    62    1
    42    61    63    1
    43    64    65    1
    44    64    66    1
    45    67    68    1
    46    67    69    1
    47    70    71    1
    48    70    72    1
    49    73    74    1
    50    73    75    1
    51    76    77    1
    52    76    78    1
    53    79    80    1
    54    79    81    1
    55    82    83    1
    56    82    84    1
    57    85    86    1
    58    85    87    1
    59    88    89    1
    60    88    90    1
    61    91    92    1
    62    91    93    1
    63    94    95    1
    64    94    96    1
    65    97    98    1
    66    97    99    1
    67   100   101    1
    68   100   102    1
    69   103   104    1
    70   103   105    1
    71   106   107    1
    72   106   108    1
    73   109   110    1
    74   109   111    1
    75   112   113    1
    76   112   114    1
    77   115   116    1
    78   115   117    1
    79   118   119    1
    80   118   120    1
    81   121   122    1
    82   121   123    1
    83   124   125    1
    84   124   126    1
    85   127   128    1
    86   127   129    1
    87   130   131    1
    88   130   132    1
    89   133   134    1
    90   133   135    1
    91   136   137    1
    92   136   138    1
    93   139   140    1
    94   139   141    1
    95   142   143    1
    96   142   144    1
    97   145   146    1
    98   145   147    1
    99   148   149    1
   100   148   150    1
   101   151   152    1
   102   151   153    1
   103   154   155    1
   104   154   156    1
   105   157   158    1
   106   157   159    1
   107   160   161    1
   108   160   162    1
   109   163   164    1
   110   163   165    1
   111   166   167    1
   112   166   168    1
   113   169   170    1
   114   169   171    1
   115   172   173    1
   116   172   174    1
   117   175   176    1
   118   175   177    1
   119   178   179    1
   120   178   180    1
   121   181   182    1
   122   181   183    1
   123   184   185    1
   124   184   186    1
   125   187   188    1
   126   187   189    1
   127   190   191    1
   128   190   192    1
   129   193   194    1
   130   193   195    1
   131   196   197    1
   132   196   198    1
   133   199   200    1
   134   199   201    1
   135   202   203    1
   136   202   204    1
   137   205   206    1
   138   205   207    1
   139   208   209    1
   140   208   210    1
   141   211   212    1
   142   211   213    1
   143   214   215    1
   144   214   216    1
   145   217   218    1
   146   217   219    1
   147   220   221    1
   148   220   222    1
   149   223   224    1
   150   223   225    1
   151   226   227    1
   152   226   228    1
   153   229   230    1
   154   229   231    1
   155   232   233    1
   156   232   234    1
   157   235   236    1
   158   235   237    1
   159   238   239    1
   160   238   240    1
   161   241   242    1
   162   241   243    1
   163   244   245    1
   164   244   246    1
   165   247   248    1
   166   247   249    1
   167   250   251    1
   168   250   252    1
   169   253   254    1
   170   253   255    1
   171   256   257    1
   172   256   258    1
   173   259   260    1
   174   259   261    1
   175   262   263    1
   176   262   264    1
   177   265   266    1
   178   265   267    1
   179   268   269    1
   180   268   270    1
   181   271   272    1
   182   271   273    1
   183   274   275    1
   184   274   276    1
   185   277   278    1
   186   277   279    1
   187   280   281    1
   188   280   282    1
   189   283   284    1
   190   283   285    1
   191   286   287    1
   192   286   288    1
   193   289   290    1
   194   289   291    1
   195   292   293    1
   196   292   294    1
   197   295   296    1
   198   295   297    1
   199   298   299    1
   200   298   300    1
   201   301   302    1
   202   301   303    1
   203   304   305    1
   204   304   306    1
   205   307   308    1
   206   307   309    1
   207   310   311    1
   208   310   312    1
   209   313   314    1
   210   313   315    1
   211   316   317    1
   212   316   318    1
   213   319   320    1
   214   319   321    1
   215   322   323    1
   216   322   324    1
   217   325   326    1
   218   325   327    1
   219   328   329    1
   220   328   330    1
   221   331   332    1
   222   331   333    1
   223   334   335    1
   224   334   336    1
   225   337   338    1
   226   337   339    1
   227   340   341    1
   228   340   342    1
   229   343   344    1
   230   343   345    1
   231   346   347    1
   232   346   348    1
   233   349   350    1
   234   349   351    1
   235   352   353    1
   236   352   354    1
   237   355   356    1
   238   355   357    1
   239   358   359    1
   240   358   360    1
   241   361   362    1
   242   361   363    1
   243   364   365    1
   244   364   366    1
   245   367   368    1
   246   367   369    1
   247   370   371    1
   248   370   372    1
   249   373   374    1
   250   373   375    1
   251   376   377    1
   252   376   378    1
   253   379   380    1
   254   379   381    1
   255   382   383    1
   256   382   384    1
   257   385   386    1
   258   385   387    1
   259   388   389    1
   260   388   390    1
   261   391   392    1
   262   391   393    1
   263   394   395    1
   264   394   396    1
   265   397   398    1
   266   397   399    1
   267   400   401    1
   268   400   402    1
   269   403   404    1
   270   403   405    1
   271   406   407    1
   272   406   408    1
   273   409   410    1
   274   409   411    1
   275   412   413    1
   276   412   414    1
   277   415   416    1
   278   415   417    1
   279   418   419    1
   280   418   420    1
   281   421   422    1
   282   421   423    1
   283   424   425    1
   284   424   426    1
   285   427   428    1
   286   427   429    1
   287   430   431    1
   288   430   432    1
   289   433   434    1
   290   433   435    1
   291   436   437    1
   292   436   438    1
   293   439   440    1
   294   439   441    1
   295   442   443    1
   296   442   444    1
