@<TRIPOS>MOLECULE
*****
 375 250 0 0 0
SMALL
GASTEIGER

@<TRIPOS>ATOM
      1 O           0.8649    0.6793    0.8224 O.3     1  HOH1       -0.4105
      2 H           0.9356    1.5593    1.2218 H       0  HOH0        0.2052
      3 H           0.8415    0.8558   -0.1301 H       0  HOH0        0.2052
      4 O           1.0578    0.9330    4.6741 O.3     2  HOH2       -0.4105
      5 H           0.6195    1.1708    3.8433 H       0  HOH0        0.2052
      6 H           0.8311   -0.0007    4.7995 H       0  HOH0        0.2052
      7 O           1.2632    0.4875    7.1032 O.3     3  HOH3       -0.4105
      8 H           1.3221    0.9881    7.9308 H       0  HOH0        0.2052
      9 H           0.3943    0.7259    6.7467 H       0  HOH0        0.2052
     10 O           0.5359    0.6687    9.9810 O.3     4  HOH4       -0.4105
     11 H           1.0012    0.0264   10.5377 H       0  HOH0        0.2052
     12 H           0.5284    1.4782   10.5137 H       0  HOH0        0.2052
     13 O           1.0999    0.6878   12.5905 O.3     5  HOH5       -0.4105
     14 H           1.3105    1.6295   12.5025 H       0  HOH0        0.2052
     15 H           0.1331    0.6577   12.5323 H       0  HOH0        0.2052
     16 O           1.6755    4.2792    0.4875 O.3     6  HOH6       -0.4105
     17 H           2.2087    4.8996   -0.0320 H       0  HOH0        0.2052
     18 H           1.7812    3.4348    0.0242 H       0  HOH0        0.2052
     19 O           0.7882    3.6879    3.7620 O.3     7  HOH7       -0.4105
     20 H           0.8608    3.1043    4.5321 H       0  HOH0        0.2052
     21 H           0.2898    3.1637    3.1172 H       0  HOH0        0.2052
     22 O           0.6984    3.7384    6.6198 O.3     8  HOH8       -0.4105
     23 H           0.3089    2.8547    6.6987 H       0  HOH0        0.2052
     24 H           1.1847    3.8549    7.4498 H       0  HOH0        0.2052
     25 O           1.8209    3.1570   10.1368 O.3     9  HOH9       -0.4105
     26 H           2.0080    2.8616    9.2331 H       0  HOH0        0.2052
     27 H           2.6803    3.4592   10.4670 H       0  HOH0        0.2052
     28 O           0.6421    3.7204   12.6650 O.3    10  HOH10      -0.4105
     29 H           1.4690    3.9373   12.2088 H       0  HOH0        0.2052
     30 H           0.2356    4.5832   12.8358 H       0  HOH0        0.2052
     31 O           1.1604    6.7003    0.9206 O.3    11  HOH11      -0.4105
     32 H           1.3591    7.6404    1.0459 H       0  HOH0        0.2052
     33 H           0.8116    6.6531    0.0178 H       0  HOH0        0.2052
     34 O           0.7318    7.7472    3.4388 O.3    12  HOH12      -0.4105
     35 H           1.1280    7.8985    4.3100 H       0  HOH0        0.2052
     36 H           0.6697    6.7824    3.3743 H       0  HOH0        0.2052
     37 O           1.0213    7.9293    7.5248 O.3    13  HOH13      -0.4105
     38 H           0.9641    8.1200    6.5765 H       0  HOH0        0.2052
     39 H           1.0644    6.9622    7.5669 H       0  HOH0        0.2052
     40 O           0.4038    7.0935    9.6853 O.3    14  HOH14      -0.4105
     41 H           1.0200    7.8256    9.8379 H       0  HOH0        0.2052
     42 H           0.9792    6.3207    9.5823 H       0  HOH0        0.2052
     43 O           0.5623    6.4003   11.7415 O.3    15  HOH15      -0.4105
     44 H           0.6627    7.3392   11.9590 H       0  HOH0        0.2052
     45 H           1.4733    6.0800   11.6610 H       0  HOH0        0.2052
     46 O           0.4409   11.0264    0.6789 O.3    16  HOH16      -0.4105
     47 H           0.4682   10.8151   -0.2663 H       0  HOH0        0.2052
     48 H           1.1845   10.5293    1.0515 H       0  HOH0        0.2052
     49 O           0.4080   10.4171    3.1423 O.3    17  HOH17      -0.4105
     50 H           0.4485    9.8869    3.9523 H       0  HOH0        0.2052
     51 H           0.9277   11.2072    3.3535 H       0  HOH0        0.2052
     52 O           0.9474   10.2548    5.9745 O.3    18  HOH18      -0.4105
     53 H           1.1115   10.2962    6.9286 H       0  HOH0        0.2052
     54 H           1.0543   11.1712    5.6785 H       0  HOH0        0.2052
     55 O           1.1255   10.5766   10.1226 O.3    19  HOH19      -0.4105
     56 H           1.7696   11.1817   10.5201 H       0  HOH0        0.2052
     57 H           0.3234   10.7093   10.6498 H       0  HOH0        0.2052
     58 O           1.0628    9.9406   12.9425 O.3    20  HOH20      -0.4105
     59 H           0.8624   10.8565   12.6978 H       0  HOH0        0.2052
     60 H           1.2652    9.5115   12.0976 H       0  HOH0        0.2052
     61 O           0.6823   13.4658    0.9123 O.3    21  HOH21      -0.4105
     62 H           0.8702   14.3325    0.5217 H       0  HOH0        0.2052
     63 H           1.3989   12.9014    0.5855 H       0  HOH0        0.2052
     64 O           1.3113   13.6963    3.8836 O.3    22  HOH22      -0.4105
     65 H           0.5225   13.1687    4.0793 H       0  HOH0        0.2052
     66 H           1.2863   13.8066    2.9212 H       0  HOH0        0.2052
     67 O           1.2667   13.0516    6.8582 O.3    23  HOH23      -0.4105
     68 H           1.1561   13.5580    7.6769 H       0  HOH0        0.2052
     69 H           0.9927   13.6682    6.1628 H       0  HOH0        0.2052
     70 O           0.5403   13.8103    9.9115 O.3    24  HOH24      -0.4105
     71 H           1.1022   14.3123   10.5208 H       0  HOH0        0.2052
     72 H           0.5917   12.9006   10.2413 H       0  HOH0        0.2052
     73 O           0.6120   13.4760   12.5158 O.3    25  HOH25      -0.4105
     74 H           1.3540   12.9013   12.2748 H       0  HOH0        0.2052
     75 H           1.0276   14.2029   13.0034 H       0  HOH0        0.2052
     76 O           3.0000    1.1849    0.4605 O.3    26  HOH26      -0.4105
     77 H           2.9267    0.2601    0.1806 H       0  HOH0        0.2052
     78 H           3.9277    1.2768    0.7245 H       0  HOH0        0.2052
     79 O           3.0734    0.3999    3.2327 O.3    27  HOH27      -0.4105
     80 H           2.4575    0.1802    2.5176 H       0  HOH0        0.2052
     81 H           3.8877    0.6511    2.7714 H       0  HOH0        0.2052
     82 O           4.1626    0.4388    6.9928 O.3    28  HOH28      -0.4105
     83 H           4.0196    0.3236    6.0414 H       0  HOH0        0.2052
     84 H           3.3668    0.0610    7.3966 H       0  HOH0        0.2052
     85 O           2.8128    0.8358    9.4500 O.3    29  HOH29      -0.4105
     86 H           2.7678    1.2419   10.3286 H       0  HOH0        0.2052
     87 H           3.5076    0.1660    9.5370 H       0  HOH0        0.2052
     88 O           3.3520    0.4285   12.3082 O.3    30  HOH30      -0.4105
     89 H           4.1880    0.7645   11.9516 H       0  HOH0        0.2052
     90 H           3.3831    0.6710   13.2459 H       0  HOH0        0.2052
     91 O           4.2558    4.2258    0.2520 O.3    31  HOH31      -0.4105
     92 H           3.8866    3.3315    0.3058 H       0  HOH0        0.2052
     93 H           4.0393    4.6204    1.1101 H       0  HOH0        0.2052
     94 O           2.6417    2.7851    2.0237 O.3    32  HOH32      -0.4105
     95 H           2.4774    3.7092    2.2643 H       0  HOH0        0.2052
     96 H           2.2462    2.2802    2.7501 H       0  HOH0        0.2052
     97 O           3.1051    2.2464    6.5087 O.3    33  HOH33      -0.4105
     98 H           2.3070    1.8945    6.0866 H       0  HOH0        0.2052
     99 H           2.9024    2.2148    7.4557 H       0  HOH0        0.2052
    100 O           4.3016    2.5666    9.6329 O.3    34  HOH34      -0.4105
    101 H           4.6244    2.2728   10.4980 H       0  HOH0        0.2052
    102 H           4.5636    1.8539    9.0309 H       0  HOH0        0.2052
    103 O           4.0366    3.1931   12.3964 O.3    35  HOH35      -0.4105
    104 H           3.8732    4.0074   12.8955 H       0  HOH0        0.2052
    105 H           3.2313    2.6710   12.5302 H       0  HOH0        0.2052
    106 O           3.7242    6.7998    0.6877 O.3    36  HOH36      -0.4105
    107 H           3.1571    6.5498    1.4325 H       0  HOH0        0.2052
    108 H           3.1067    6.9058   -0.0515 H       0  HOH0        0.2052
    109 O           3.4464    7.6861    3.3426 O.3    37  HOH37      -0.4105
    110 H           4.2805    8.1023    3.0782 H       0  HOH0        0.2052
    111 H           2.7673    8.2358    2.9235 H       0  HOH0        0.2052
    112 O           4.4141    8.7348    5.1724 O.3    38  HOH38      -0.4105
    113 H           3.4645    8.5427    5.1883 H       0  HOH0        0.2052
    114 H           4.4790    9.5522    4.6560 H       0  HOH0        0.2052
    115 O           4.3184    3.8424    7.9249 O.3    39  HOH39      -0.4105
    116 H           5.0060    4.2291    8.4875 H       0  HOH0        0.2052
    117 H           3.4902    4.1543    8.3197 H       0  HOH0        0.2052
    118 O           4.8998    4.3502   10.6512 O.3    40  HOH40      -0.4105
    119 H           5.6318    4.9613   10.8236 H       0  HOH0        0.2052
    120 H           4.2517    4.8900   10.1743 H       0  HOH0        0.2052
    121 O           3.0160   11.4322    0.1618 O.3    41  HOH41      -0.4105
    122 H           3.3230   10.5136    0.1882 H       0  HOH0        0.2052
    123 H           2.5944   11.5133   -0.7070 H       0  HOH0        0.2052
    124 O           2.8595   10.4849    2.7753 O.3    42  HOH42      -0.4105
    125 H           2.6793   10.2358    3.6942 H       0  HOH0        0.2052
    126 H           3.7742   10.2000    2.6305 H       0  HOH0        0.2052
    127 O           3.6714   10.8140    6.5646 O.3    43  HOH43      -0.4105
    128 H           4.1011   10.0176    6.9111 H       0  HOH0        0.2052
    129 H           3.0523   10.4758    5.9003 H       0  HOH0        0.2052
    130 O           3.7430   11.1826    9.8387 O.3    44  HOH44      -0.4105
    131 H           3.5311   10.8567    8.9511 H       0  HOH0        0.2052
    132 H           3.7124   10.3885   10.3931 H       0  HOH0        0.2052
    133 O           3.1198   11.7774   12.1129 O.3    45  HOH45      -0.4105
    134 H           3.0183   10.8536   12.3871 H       0  HOH0        0.2052
    135 H           4.0608   11.8549   11.8951 H       0  HOH0        0.2052
    136 O           3.3338   13.5896    0.2534 O.3    46  HOH46      -0.4105
    137 H           3.2285   14.2991    0.9049 H       0  HOH0        0.2052
    138 H           2.9336   13.9502   -0.5521 H       0  HOH0        0.2052
    139 O           3.8807   12.1880    1.9630 O.3    47  HOH47      -0.4105
    140 H           2.9557   12.4740    2.0032 H       0  HOH0        0.2052
    141 H           4.3690   12.9161    2.3757 H       0  HOH0        0.2052
    142 O           3.4260   12.0036    4.7049 O.3    48  HOH48      -0.4105
    143 H           2.8115   12.4129    4.0773 H       0  HOH0        0.2052
    144 H           4.1444   11.6710    4.1462 H       0  HOH0        0.2052
    145 O           3.6376   13.4056   10.3003 O.3    49  HOH49      -0.4105
    146 H           3.5816   14.3700   10.2252 H       0  HOH0        0.2052
    147 H           2.7337   13.1350   10.5208 H       0  HOH0        0.2052
    148 O           3.2808   14.0782   12.4676 O.3    50  HOH50      -0.4105
    149 H           3.1263   13.6003   13.2963 H       0  HOH0        0.2052
    150 H           4.2137   13.9072   12.2693 H       0  HOH0        0.2052
    151 O           6.8428    1.0278    0.0592 O.3    51  HOH51      -0.4105
    152 H           6.0698    0.5364    0.3754 H       0  HOH0        0.2052
    153 H           7.4448    1.0309    0.8185 H       0  HOH0        0.2052
    154 O           6.4587    0.9316    2.8981 O.3    52  HOH52      -0.4105
    155 H           5.8486    1.4289    2.3329 H       0  HOH0        0.2052
    156 H           5.9550    0.7832    3.7125 H       0  HOH0        0.2052
    157 O           6.2972    0.2649    6.6184 O.3    53  HOH53      -0.4105
    158 H           6.1561    0.9494    5.9472 H       0  HOH0        0.2052
    159 H           6.2589    0.7482    7.4573 H       0  HOH0        0.2052
    160 O           6.8615    0.3706   10.4560 O.3    54  HOH54      -0.4105
    161 H           6.8219    0.1202    9.5208 H       0  HOH0        0.2052
    162 H           5.9640    0.6770   10.6546 H       0  HOH0        0.2052
    163 O           7.2596    0.6680   12.7637 O.3    55  HOH55      -0.4105
    164 H           7.5548    1.4118   12.2172 H       0  HOH0        0.2052
    165 H           6.2954    0.7615   12.7851 H       0  HOH0        0.2052
    166 O           6.6178    3.5868    0.6494 O.3    56  HOH56      -0.4105
    167 H           7.4578    3.1423    0.4605 H       0  HOH0        0.2052
    168 H           6.0113    2.8611    0.8604 H       0  HOH0        0.2052
    169 O           7.7441    3.2348    2.5480 O.3    57  HOH57      -0.4105
    170 H           8.0729    2.3235    2.5311 H       0  HOH0        0.2052
    171 H           6.8678    3.1601    2.9548 H       0  HOH0        0.2052
    172 O           6.6212    3.3889    6.8045 O.3    58  HOH58      -0.4105
    173 H           6.9736    3.7464    7.6333 H       0  HOH0        0.2052
    174 H           5.9189    2.7853    7.0898 H       0  HOH0        0.2052
    175 O           6.5811    2.2683    9.2376 O.3    59  HOH59      -0.4105
    176 H           6.4989    3.1257    9.6816 H       0  HOH0        0.2052
    177 H           7.5376    2.1431    9.1455 H       0  HOH0        0.2052
    178 O           6.5824    3.2773   12.1733 O.3    60  HOH60      -0.4105
    179 H           6.0983    3.8316   12.8035 H       0  HOH0        0.2052
    180 H           7.5080    3.5360   12.2969 H       0  HOH0        0.2052
    181 O           7.2350    7.3614    0.7041 O.3    61  HOH61      -0.4105
    182 H           7.3912    8.3120    0.8087 H       0  HOH0        0.2052
    183 H           6.2797    7.2960    0.5560 H       0  HOH0        0.2052
    184 O           8.1895    7.7327    3.6907 O.3    62  HOH62      -0.4105
    185 H           8.3742    8.3973    3.0102 H       0  HOH0        0.2052
    186 H           7.2251    7.7534    3.7824 H       0  HOH0        0.2052
    187 O           7.5740    6.7941    6.1525 O.3    63  HOH63      -0.4105
    188 H           8.1281    6.5032    5.4127 H       0  HOH0        0.2052
    189 H           7.4117    7.7316    5.9688 H       0  HOH0        0.2052
    190 O           5.7171    6.9285    9.6667 O.3    64  HOH64      -0.4105
    191 H           4.9741    7.1267   10.2564 H       0  HOH0        0.2052
    192 H           5.3140    6.4253    8.9433 H       0  HOH0        0.2052
    193 O           6.6227    7.8129   11.6129 O.3    65  HOH65      -0.4105
    194 H           7.2328    7.9864   10.8804 H       0  HOH0        0.2052
    195 H           6.6144    6.8468   11.6869 H       0  HOH0        0.2052
    196 O           6.2160   11.2696    1.1344 O.3    66  HOH66      -0.4105
    197 H           5.2999   11.1723    0.8342 H       0  HOH0        0.2052
    198 H           6.6549   10.4688    0.8103 H       0  HOH0        0.2052
    199 O           5.7269   10.5705    3.0491 O.3    67  HOH67      -0.4105
    200 H           6.5158   10.0183    3.1569 H       0  HOH0        0.2052
    201 H           6.0477   11.4708    3.2086 H       0  HOH0        0.2052
    202 O           5.6571   10.9280    5.6417 O.3    68  HOH68      -0.4105
    203 H           6.3833   11.5681    5.5984 H       0  HOH0        0.2052
    204 H           6.0953   10.0911    5.8579 H       0  HOH0        0.2052
    205 O           6.5841   10.7888   10.4428 O.3    69  HOH69      -0.4105
    206 H           5.9033   11.2706    9.9495 H       0  HOH0        0.2052
    207 H           6.1405    9.9722   10.7173 H       0  HOH0        0.2052
    208 O           7.2515   10.8416   12.5071 O.3    70  HOH70      -0.4105
    209 H           7.4626   11.0975   13.4176 H       0  HOH0        0.2052
    210 H           7.3097    9.8744   12.5164 H       0  HOH0        0.2052
    211 O           6.5860   13.3932    0.3425 O.3    71  HOH71      -0.4105
    212 H           6.9727   13.5490    1.2172 H       0  HOH0        0.2052
    213 H           5.6317   13.3707    0.5090 H       0  HOH0        0.2052
    214 O           4.9301   13.3792    5.5191 O.3    72  HOH72      -0.4105
    215 H           4.7988   14.3383    5.4744 H       0  HOH0        0.2052
    216 H           5.3761   13.1650    4.6859 H       0  HOH0        0.2052
    217 O           6.2879   13.0411    7.2157 O.3    73  HOH73      -0.4105
    218 H           5.7465   13.7579    7.5790 H       0  HOH0        0.2052
    219 H           6.8396   13.4788    6.5500 H       0  HOH0        0.2052
    220 O           5.9323   13.3920   10.6299 O.3    74  HOH74      -0.4105
    221 H           6.8827   13.2411   10.5170 H       0  HOH0        0.2052
    222 H           5.7145   14.0384    9.9417 H       0  HOH0        0.2052
    223 O           6.4712   13.1351   12.7857 O.3    75  HOH75      -0.4105
    224 H           7.4170   13.0505   12.5928 H       0  HOH0        0.2052
    225 H           6.3209   14.0922   12.8051 H       0  HOH0        0.2052
    226 O          10.1141    1.1190    0.1941 O.3    76  HOH76      -0.4105
    227 H           9.4993    1.4970    0.8406 H       0  HOH0        0.2052
    228 H          10.0237    0.1621    0.3168 H       0  HOH0        0.2052
    229 O          10.8047    1.1662    2.4834 O.3    77  HOH77      -0.4105
    230 H          10.1063    1.3066    3.1402 H       0  HOH0        0.2052
    231 H          10.7724    0.2138    2.3074 H       0  HOH0        0.2052
    232 O          10.8036    0.8688    7.9733 O.3    78  HOH78      -0.4105
    233 H          10.8222    1.7738    8.3189 H       0  HOH0        0.2052
    234 H           9.9240    0.5432    8.2168 H       0  HOH0        0.2052
    235 O          10.2442    1.1806   10.2978 O.3    79  HOH79      -0.4105
    236 H          10.5258    0.2548   10.2467 H       0  HOH0        0.2052
    237 H           9.2819    1.1387   10.1925 H       0  HOH0        0.2052
    238 O           9.6237    0.5711   12.4398 O.3    80  HOH80      -0.4105
    239 H          10.4496    0.1690   12.7483 H       0  HOH0        0.2052
    240 H           9.5427    1.3770   12.9716 H       0  HOH0        0.2052
    241 O          10.2853    4.3921    0.5450 O.3    81  HOH81      -0.4105
    242 H          10.3574    4.9176   -0.2660 H       0  HOH0        0.2052
    243 H           9.9297    3.5429    0.2428 H       0  HOH0        0.2052
    244 O          10.0366    3.8383    3.1978 O.3    82  HOH82      -0.4105
    245 H          10.4890    3.3090    3.8717 H       0  HOH0        0.2052
    246 H          10.1030    3.3007    2.3944 H       0  HOH0        0.2052
    247 O          10.4249    4.9190    5.4293 O.3    83  HOH83      -0.4105
    248 H           9.6367    5.0870    5.9673 H       0  HOH0        0.2052
    249 H          11.1296    4.7873    6.0812 H       0  HOH0        0.2052
    250 O           9.3275    3.2971   10.4775 O.3    84  HOH84      -0.4105
    251 H          10.2779    3.2735   10.6650 H       0  HOH0        0.2052
    252 H           9.2792    3.2728    9.5100 H       0  HOH0        0.2052
    253 O           9.7491    4.2500   12.5737 O.3    85  HOH85      -0.4105
    254 H          10.1000    4.8042   13.2870 H       0  HOH0        0.2052
    255 H          10.0763    3.3625   12.7843 H       0  HOH0        0.2052
    256 O           9.4955    7.0576    0.5235 O.3    86  HOH86      -0.4105
    257 H          10.4441    6.9542    0.3547 H       0  HOH0        0.2052
    258 H           9.4515    7.7589    1.1906 H       0  HOH0        0.2052
    259 O          10.2134    7.7906    3.3026 O.3    87  HOH87      -0.4105
    260 H          10.2430    6.8905    3.6602 H       0  HOH0        0.2052
    261 H          10.2004    8.3551    4.0901 H       0  HOH0        0.2052
    262 O           9.8726    7.2198    6.3657 O.3    88  HOH88      -0.4105
    263 H           9.5489    8.0902    6.0889 H       0  HOH0        0.2052
    264 H          10.6286    7.0548    5.7825 H       0  HOH0        0.2052
    265 O           7.4485    5.6905    9.9676 O.3    89  HOH89      -0.4105
    266 H           7.0735    5.1527    9.2541 H       0  HOH0        0.2052
    267 H           7.8097    5.0388   10.5870 H       0  HOH0        0.2052
    268 O           8.7521    6.9903   12.0027 O.3    90  HOH90      -0.4105
    269 H           8.6606    6.1160   12.4103 H       0  HOH0        0.2052
    270 H           8.5400    7.6063   12.7200 H       0  HOH0        0.2052
    271 O          10.2140    9.9858    0.6714 O.3    91  HOH91      -0.4105
    272 H          10.4515   10.9251    0.6862 H       0  HOH0        0.2052
    273 H           9.2459    9.9884    0.7111 H       0  HOH0        0.2052
    274 O           9.6680   10.9798    2.7446 O.3    92  HOH92      -0.4105
    275 H           9.8645   11.2353    3.6584 H       0  HOH0        0.2052
    276 H           9.7388   10.0134    2.7514 H       0  HOH0        0.2052
    277 O          10.7776    9.6882    5.7483 O.3    93  HOH93      -0.4105
    278 H          10.4526    9.8666    6.6435 H       0  HOH0        0.2052
    279 H          11.0577   10.5571    5.4234 H       0  HOH0        0.2052
    280 O          10.0723   10.5529   10.4369 O.3    94  HOH94      -0.4105
    281 H          10.3814   10.6515    9.5239 H       0  HOH0        0.2052
    282 H          10.7234   11.0453   10.9590 H       0  HOH0        0.2052
    283 O           9.4036   10.5962   12.5497 O.3    95  HOH95      -0.4105
    284 H          10.2174   10.8381   13.0167 H       0  HOH0        0.2052
    285 H           9.4886    9.6410   12.4106 H       0  HOH0        0.2052
    286 O           9.3523   13.7482    0.3218 O.3    96  HOH96      -0.4105
    287 H          10.3042   13.6061    0.2093 H       0  HOH0        0.2052
    288 H           9.0382   12.9235    0.7220 H       0  HOH0        0.2052
    289 O          10.4437   13.3332    2.8882 O.3    97  HOH97      -0.4105
    290 H           9.6163   12.9664    2.5421 H       0  HOH0        0.2052
    291 H          10.6812   14.0204    2.2477 H       0  HOH0        0.2052
    292 O          10.7778   12.1823    6.8628 O.3    98  HOH98      -0.4105
    293 H          10.6772   11.8175    7.7549 H       0  HOH0        0.2052
    294 H           9.9051   12.0595    6.4599 H       0  HOH0        0.2052
    295 O           9.9276   12.8376    9.5237 O.3    99  HOH99      -0.4105
    296 H           9.4003   12.6795   10.3211 H       0  HOH0        0.2052
    297 H          10.8436   12.7993    9.8374 H       0  HOH0        0.2052
    298 O           9.4558   13.7235   12.1993 O.3   100  HOH100     -0.4105
    299 H           9.5235   12.8133   12.5247 H       0  HOH0        0.2052
    300 H           9.3006   14.2473   12.9997 H       0  HOH0        0.2052
    301 O          12.2166    0.9748    0.9239 O.3   101  HOH101     -0.4105
    302 H          13.1246    1.2179    1.1593 H       0  HOH0        0.2052
    303 H          12.2674    0.7681   -0.0215 H       0  HOH0        0.2052
    304 O          12.8788    1.1354    3.2408 O.3   102  HOH102     -0.4105
    305 H          12.7577    0.1765    3.1706 H       0  HOH0        0.2052
    306 H          12.3519    1.3818    4.0157 H       0  HOH0        0.2052
    307 O          12.4041    0.4092    6.7655 O.3   103  HOH103     -0.4105
    308 H          11.9508    1.1380    6.3157 H       0  HOH0        0.2052
    309 H          13.3380    0.5418    6.5436 H       0  HOH0        0.2052
    310 O          12.3883    0.8688    9.3522 O.3   104  HOH104     -0.4105
    311 H          13.2053    0.6795    8.8667 H       0  HOH0        0.2052
    312 H          12.6620    0.8641   10.2817 H       0  HOH0        0.2052
    313 O          12.4575    1.1308   13.3363 O.3   105  HOH105     -0.4105
    314 H          13.3101    1.4736   13.6438 H       0  HOH0        0.2052
    315 H          12.6920    0.5463   12.5999 H       0  HOH0        0.2052
    316 O          12.4281    3.8063    0.3025 O.3   106  HOH106     -0.4105
    317 H          12.6190    4.5565    0.8854 H       0  HOH0        0.2052
    318 H          13.2085    3.2384    0.3887 H       0  HOH0        0.2052
    319 O          12.4325    3.8373    2.9784 O.3   107  HOH107     -0.4105
    320 H          13.3265    4.2073    2.9244 H       0  HOH0        0.2052
    321 H          12.4825    3.0265    2.4501 H       0  HOH0        0.2052
    322 O          12.4502    2.9638    5.5558 O.3   108  HOH108     -0.4105
    323 H          12.5080    3.2920    6.4657 H       0  HOH0        0.2052
    324 H          12.5238    3.7633    5.0134 H       0  HOH0        0.2052
    325 O          12.1054    3.1626    9.7487 O.3   109  HOH109     -0.4105
    326 H          12.8700    2.8535    9.2400 H       0  HOH0        0.2052
    327 H          12.4715    3.3632   10.6231 H       0  HOH0        0.2052
    328 O          12.2867    3.4362   12.9411 O.3   110  HOH110     -0.4105
    329 H          12.0792    4.3628   12.7483 H       0  HOH0        0.2052
    330 H          13.2426    3.3750   12.7947 H       0  HOH0        0.2052
    331 O          12.5971    6.8432    0.7702 O.3   111  HOH111     -0.4105
    332 H          12.4383    7.7873    0.6204 H       0  HOH0        0.2052
    333 H          12.5028    6.4476   -0.1094 H       0  HOH0        0.2052
    334 O          12.5311    7.0004    3.5299 O.3   112  HOH112     -0.4105
    335 H          12.5250    7.7381    2.9016 H       0  HOH0        0.2052
    336 H          13.1291    6.3537    3.1259 H       0  HOH0        0.2052
    337 O          12.7057    6.3507    6.3504 O.3   113  HOH113     -0.4105
    338 H          12.9089    7.2871    6.2063 H       0  HOH0        0.2052
    339 H          12.6409    5.9849    5.4554 H       0  HOH0        0.2052
    340 O          10.7247    6.8045   12.8454 O.3   114  HOH114     -0.4105
    341 H          10.8819    6.5105   11.9355 H       0  HOH0        0.2052
    342 H          10.6867    7.7702   12.7761 H       0  HOH0        0.2052
    343 O          12.6493    7.2971   13.3302 O.3   115  HOH115     -0.4105
    344 H          13.4447    7.8506   13.3255 H       0  HOH0        0.2052
    345 H          12.9211    6.4929   12.8630 H       0  HOH0        0.2052
    346 O          12.6856   10.9803    0.6855 O.3   116  HOH116     -0.4105
    347 H          12.4378   11.0220   -0.2504 H       0  HOH0        0.2052
    348 H          12.5203   10.0575    0.9305 H       0  HOH0        0.2052
    349 O          12.0325   10.6835    3.5678 O.3   117  HOH117     -0.4105
    350 H          11.7946    9.7443    3.5856 H       0  HOH0        0.2052
    351 H          11.7848   10.9708    2.6761 H       0  HOH0        0.2052
    352 O          13.0655   10.8626    6.4061 O.3   118  HOH118     -0.4105
    353 H          12.5157   10.2176    6.8759 H       0  HOH0        0.2052
    354 H          12.7728   11.7179    6.7550 H       0  HOH0        0.2052
    355 O          12.6121   10.7404    9.5867 O.3   119  HOH119     -0.4105
    356 H          12.4396   11.2131    8.7587 H       0  HOH0        0.2052
    357 H          12.6486   11.4423   10.2538 H       0  HOH0        0.2052
    358 O          12.4661   10.9903   12.3733 O.3   120  HOH120     -0.4105
    359 H          12.4689   10.3122   13.0654 H       0  HOH0        0.2052
    360 H          13.3224   11.4323   12.4749 H       0  HOH0        0.2052
    361 O          12.3523   13.1654    0.6563 O.3   121  HOH121     -0.4105
    362 H          12.4454   14.0925    0.9223 H       0  HOH0        0.2052
    363 H          13.0641   13.0340    0.0121 H       0  HOH0        0.2052
    364 O          12.6354   13.7688    3.5367 O.3   122  HOH122     -0.4105
    365 H          12.5470   12.8143    3.3950 H       0  HOH0        0.2052
    366 H          13.5022   13.8634    3.9594 H       0  HOH0        0.2052
    367 O          12.1630   13.6985    6.4421 O.3   123  HOH123     -0.4105
    368 H          13.0674   14.0456    6.4166 H       0  HOH0        0.2052
    369 H          12.0266   13.3353    5.5542 H       0  HOH0        0.2052
    370 O          12.7276   13.5625   10.2943 O.3   124  HOH124     -0.4105
    371 H          13.2580   13.2838    9.5328 H       0  HOH0        0.2052
    372 H          13.3206   13.4384   11.0506 H       0  HOH0        0.2052
    373 O          11.4074   13.4802   13.3244 O.3   125  HOH125     -0.4105
    374 H          11.9468   14.2556   13.5405 H       0  HOH0        0.2052
    375 H          11.6390   13.2830   12.4044 H       0  HOH0        0.2052
@<TRIPOS>BOND
     1     1     2    1
     2     1     3    1
     3     4     5    1
     4     4     6    1
     5     7     8    1
     6     7     9    1
     7    10    11    1
     8    10    12    1
     9    13    14    1
    10    13    15    1
    11    16    17    1
    12    16    18    1
    13    19    20    1
    14    19    21    1
    15    22    23    1
    16    22    24    1
    17    25    26    1
    18    25    27    1
    19    28    29    1
    20    28    30    1
    21    31    32    1
    22    31    33    1
    23    34    35    1
    24    34    36    1
    25    37    38    1
    26    37    39    1
    27    40    41    1
    28    40    42    1
    29    43    44    1
    30    43    45    1
    31    46    47    1
    32    46    48    1
    33    49    50    1
    34    49    51    1
    35    52    53    1
    36    52    54    1
    37    55    56    1
    38    55    57    1
    39    58    59    1
    40    58    60    1
    41    61    62    1
    42    61    63    1
    43    64    65    1
    44    64    66    1
    45    67    68    1
    46    67    69    1
    47    70    71    1
    48    70    72    1
    49    73    74    1
    50    73    75    1
    51    76    77    1
    52    76    78    1
    53    79    80    1
    54    79    81    1
    55    82    83    1
    56    82    84    1
    57    85    86    1
    58    85    87    1
    59    88    89    1
    60    88    90    1
    61    91    92    1
    62    91    93    1
    63    94    95    1
    64    94    96    1
    65    97    98    1
    66    97    99    1
    67   100   101    1
    68   100   102    1
    69   103   104    1
    70   103   105    1
    71   106   107    1
    72   106   108    1
    73   109   110    1
    74   109   111    1
    75   112   113    1
    76   112   114    1
    77   115   116    1
    78   115   117    1
    79   118   119    1
    80   118   120    1
    81   121   122    1
    82   121   123    1
    83   124   125    1
    84   124   126    1
    85   127   128    1
    86   127   129    1
    87   130   131    1
    88   130   132    1
    89   133   134    1
    90   133   135    1
    91   136   137    1
    92   136   138    1
    93   139   140    1
    94   139   141    1
    95   142   143    1
    96   142   144    1
    97   145   146    1
    98   145   147    1
    99   148   149    1
   100   148   150    1
   101   151   152    1
   102   151   153    1
   103   154   155    1
   104   154   156    1
   105   157   158    1
   106   157   159    1
   107   160   161    1
   108   160   162    1
   109   163   164    1
   110   163   165    1
   111   166   167    1
   112   166   168    1
   113   169   170    1
   114   169   171    1
   115   172   173    1
   116   172   174    1
   117   175   176    1
   118   175   177    1
   119   178   179    1
   120   178   180    1
   121   181   182    1
   122   181   183    1
   123   184   185    1
   124   184   186    1
   125   187   188    1
   126   187   189    1
   127   190   191    1
   128   190   192    1
   129   193   194    1
   130   193   195    1
   131   196   197    1
   132   196   198    1
   133   199   200    1
   134   199   201    1
   135   202   203    1
   136   202   204    1
   137   205   206    1
   138   205   207    1
   139   208   209    1
   140   208   210    1
   141   211   212    1
   142   211   213    1
   143   214   215    1
   144   214   216    1
   145   217   218    1
   146   217   219    1
   147   220   221    1
   148   220   222    1
   149   223   224    1
   150   223   225    1
   151   226   227    1
   152   226   228    1
   153   229   230    1
   154   229   231    1
   155   232   233    1
   156   232   234    1
   157   235   236    1
   158   235   237    1
   159   238   239    1
   160   238   240    1
   161   241   242    1
   162   241   243    1
   163   244   245    1
   164   244   246    1
   165   247   248    1
   166   247   249    1
   167   250   251    1
   168   250   252    1
   169   253   254    1
   170   253   255    1
   171   256   257    1
   172   256   258    1
   173   259   260    1
   174   259   261    1
   175   262   263    1
   176   262   264    1
   177   265   266    1
   178   265   267    1
   179   268   269    1
   180   268   270    1
   181   271   272    1
   182   271   273    1
   183   274   275    1
   184   274   276    1
   185   277   278    1
   186   277   279    1
   187   280   281    1
   188   280   282    1
   189   283   284    1
   190   283   285    1
   191   286   287    1
   192   286   288    1
   193   289   290    1
   194   289   291    1
   195   292   293    1
   196   292   294    1
   197   295   296    1
   198   295   297    1
   199   298   299    1
   200   298   300    1
   201   301   302    1
   202   301   303    1
   203   304   305    1
   204   304   306    1
   205   307   308    1
   206   307   309    1
   207   310   311    1
   208   310   312    1
   209   313   314    1
   210   313   315    1
   211   316   317    1
   212   316   318    1
   213   319   320    1
   214   319   321    1
   215   322   323    1
   216   322   324    1
   217   325   326    1
   218   325   327    1
   219   328   329    1
   220   328   330    1
   221   331   332    1
   222   331   333    1
   223   334   335    1
   224   334   336    1
   225   337   338    1
   226   337   339    1
   227   340   341    1
   228   340   342    1
   229   343   344    1
   230   343   345    1
   231   346   347    1
   232   346   348    1
   233   349   350    1
   234   349   351    1
   235   352   353    1
   236   352   354    1
   237   355   356    1
   238   355   357    1
   239   358   359    1
   240   358   360    1
   241   361   362    1
   242   361   363    1
   243   364   365    1
   244   364   366    1
   245   367   368    1
   246   367   369    1
   247   370   371    1
   248   370   372    1
   249   373   374    1
   250   373   375    1
