@<TRIPOS>MOLECULE
*****
 375 250 0 0 0
SMALL
GASTEIGER

@<TRIPOS>ATOM
      1 O           1.7684    1.9593    1.9921 O.3     1  HOH1       -0.4105
      2 H           1.5490    2.8791    2.2038 H       0  HOH0        0.2052
      3 H           1.4824    1.8561    1.0721 H       0  HOH0        0.2052
      4 O           2.0777    1.6154    4.7974 O.3     2  HOH2       -0.4105
      5 H           1.7238    1.2611    3.9679 H       0  HOH0        0.2052
      6 H           2.7218    0.9492    5.0806 H       0  HOH0        0.2052
      7 O           1.5156    1.2865    7.8658 O.3     3  HOH3       -0.4105
      8 H           0.9718    2.0617    8.0717 H       0  HOH0        0.2052
      9 H           1.5472    1.2732    6.8975 H       0  HOH0        0.2052
     10 O           0.7189    0.5855    9.8103 O.3     4  HOH4       -0.4105
     11 H           1.1413   -0.0531   10.4043 H       0  HOH0        0.2052
     12 H           0.9319    1.4458   10.2019 H       0  HOH0        0.2052
     13 O           1.6905    0.8980   12.2622 O.3     5  HOH5       -0.4105
     14 H           2.0250    1.7761   12.0257 H       0  HOH0        0.2052
     15 H           0.7343    1.0276   12.3502 H       0  HOH0        0.2052
     16 O           2.5323    3.8543    0.7074 O.3     6  HOH6       -0.4105
     17 H           2.8974    4.7432    0.5825 H       0  HOH0        0.2052
     18 H           2.6887    3.4155   -0.1422 H       0  HOH0        0.2052
     19 O           2.0222    4.3566    4.1513 O.3     7  HOH7       -0.4105
     20 H           2.7462    4.2519    4.7867 H       0  HOH0        0.2052
     21 H           1.5581    3.5065    4.1831 H       0  HOH0        0.2052
     22 O           1.5262    4.1979    6.6144 O.3     8  HOH8       -0.4105
     23 H           1.3511    3.2992    6.2972 H       0  HOH0        0.2052
     24 H           1.7475    4.0769    7.5500 H       0  HOH0        0.2052
     25 O           2.5286    3.0001   10.3232 O.3     9  HOH9       -0.4105
     26 H           2.4469    3.0283    9.3581 H       0  HOH0        0.2052
     27 H           2.9488    3.8439   10.5474 H       0  HOH0        0.2052
     28 O           2.0195    4.1099   12.4428 O.3    10  HOH10      -0.4105
     29 H           2.0371    3.5293   13.2184 H       0  HOH0        0.2052
     30 H           1.2476    3.8072   11.9413 H       0  HOH0        0.2052
     31 O           1.3976    6.7993    1.2931 O.3    11  HOH11      -0.4105
     32 H           1.4990    7.7524    1.1511 H       0  HOH0        0.2052
     33 H           1.4771    6.4204    0.4048 H       0  HOH0        0.2052
     34 O           1.3028    8.0808    3.3648 O.3    12  HOH12      -0.4105
     35 H           1.6433    8.4002    4.2139 H       0  HOH0        0.2052
     36 H           1.4441    7.1229    3.4014 H       0  HOH0        0.2052
     37 O           2.9025    9.0919    7.9145 O.3    13  HOH13      -0.4105
     38 H           1.9675    9.0007    7.6770 H       0  HOH0        0.2052
     39 H           3.2915    8.2400    7.6656 H       0  HOH0        0.2052
     40 O           2.2318    7.7225    9.6110 O.3    14  HOH14      -0.4105
     41 H           2.8779    8.3703    9.9301 H       0  HOH0        0.2052
     42 H           2.7714    6.9577    9.3604 H       0  HOH0        0.2052
     43 O           1.7645    6.0784   11.2970 O.3    15  HOH15      -0.4105
     44 H           1.7752    7.0016   11.5912 H       0  HOH0        0.2052
     45 H           2.6971    5.8752   11.1301 H       0  HOH0        0.2052
     46 O           1.0675   10.8256    0.9230 O.3    16  HOH16      -0.4105
     47 H           1.4511   10.0226    1.3064 H       0  HOH0        0.2052
     48 H           1.4699   11.5441    1.4337 H       0  HOH0        0.2052
     49 O           0.5538   10.2591    3.2556 O.3    17  HOH17      -0.4105
     50 H           0.2910    9.9528    4.1365 H       0  HOH0        0.2052
     51 H           0.7943   11.1877    3.3927 H       0  HOH0        0.2052
     52 O           0.7878   11.0556    6.2765 O.3    18  HOH18      -0.4105
     53 H           1.3484   11.1515    7.0610 H       0  HOH0        0.2052
     54 H           1.3883   11.2320    5.5367 H       0  HOH0        0.2052
     55 O           1.5959   11.1136    9.6336 O.3    19  HOH19      -0.4105
     56 H           2.2500   10.6562   10.1831 H       0  HOH0        0.2052
     57 H           0.7668   11.0145   10.1253 H       0  HOH0        0.2052
     58 O           1.9826    9.1978   11.7254 O.3    20  HOH20      -0.4105
     59 H           1.8802   10.0216   12.2252 H       0  HOH0        0.2052
     60 H           1.1558    9.1229   11.2256 H       0  HOH0        0.2052
     61 O           0.9729   13.4594    0.5368 O.3    21  HOH21      -0.4105
     62 H           1.4948   14.2435    0.7641 H       0  HOH0        0.2052
     63 H           1.4995   13.0176   -0.1462 H       0  HOH0        0.2052
     64 O           1.4187   13.7962    3.5400 O.3    22  HOH22      -0.4105
     65 H           0.8770   13.2507    4.1299 H       0  HOH0        0.2052
     66 H           1.4528   13.2871    2.7162 H       0  HOH0        0.2052
     67 O           2.9195   12.6066    7.0589 O.3    23  HOH23      -0.4105
     68 H           2.5677   12.8497    7.9285 H       0  HOH0        0.2052
     69 H           2.3439   13.0735    6.4347 H       0  HOH0        0.2052
     70 O           1.4976   14.0418    9.5470 O.3    24  HOH24      -0.4105
     71 H           1.6249   14.3164   10.4675 H       0  HOH0        0.2052
     72 H           1.0348   13.1935    9.6176 H       0  HOH0        0.2052
     73 O           0.9942   12.7261   11.7366 O.3    25  HOH25      -0.4105
     74 H           1.7591   12.1360   11.6614 H       0  HOH0        0.2052
     75 H           1.2739   13.3905   12.3841 H       0  HOH0        0.2052
     76 O           3.7434    2.2294    1.2188 O.3    26  HOH26      -0.4105
     77 H           3.6957    1.5722    0.5083 H       0  HOH0        0.2052
     78 H           4.5238    1.9660    1.7294 H       0  HOH0        0.2052
     79 O           3.5482    0.1688    3.3531 O.3    27  HOH27      -0.4105
     80 H           3.2341    0.5128    2.5034 H       0  HOH0        0.2052
     81 H           4.3518    0.6805    3.5300 H       0  HOH0        0.2052
     82 O           4.2966    0.8500    6.6125 O.3    28  HOH28      -0.4105
     83 H           4.5188    0.1019    6.0381 H       0  HOH0        0.2052
     84 H           3.6727    0.4762    7.2529 H       0  HOH0        0.2052
     85 O           2.9556    0.9606    9.4206 O.3    29  HOH29      -0.4105
     86 H           3.1118    1.0229   10.3748 H       0  HOH0        0.2052
     87 H           2.9704    0.0082    9.2426 H       0  HOH0        0.2052
     88 O           3.7645    0.3783   12.3786 O.3    30  HOH30      -0.4105
     89 H           4.5761    0.5805   11.8893 H       0  HOH0        0.2052
     90 H           3.8092    0.9562   13.1551 H       0  HOH0        0.2052
     91 O           5.1655    4.4905    1.5295 O.3    31  HOH31      -0.4105
     92 H           4.8180    3.9469    0.8065 H       0  HOH0        0.2052
     93 H           5.6433    3.8593    2.0882 H       0  HOH0        0.2052
     94 O           3.9072    3.3712    3.3178 O.3    32  HOH32      -0.4105
     95 H           3.4530    3.8391    2.6011 H       0  HOH0        0.2052
     96 H           3.3854    2.5635    3.4376 H       0  HOH0        0.2052
     97 O           3.4661    3.1849    6.6612 O.3    33  HOH33      -0.4105
     98 H           3.6637    2.6575    5.8728 H       0  HOH0        0.2052
     99 H           3.2098    2.5270    7.3248 H       0  HOH0        0.2052
    100 O           4.6090    2.7404    9.9175 O.3    34  HOH34      -0.4105
    101 H           4.9706    2.0909   10.5391 H       0  HOH0        0.2052
    102 H           4.5023    2.2417    9.0936 H       0  HOH0        0.2052
    103 O           4.4546    3.5391   12.0332 O.3    35  HOH35      -0.4105
    104 H           4.1362    4.2474   12.6128 H       0  HOH0        0.2052
    105 H           3.8579    2.7986   12.2190 H       0  HOH0        0.2052
    106 O           3.8895    6.1827    2.0246 O.3    36  HOH36      -0.4105
    107 H           3.0423    5.9457    2.4310 H       0  HOH0        0.2052
    108 H           3.6376    6.6488    1.2132 H       0  HOH0        0.2052
    109 O           3.4721    8.0811    3.1903 O.3    37  HOH37      -0.4105
    110 H           4.4336    8.1541    3.0940 H       0  HOH0        0.2052
    111 H           3.1331    8.2674    2.3019 H       0  HOH0        0.2052
    112 O           4.4142    8.6939    5.1712 O.3    38  HOH38      -0.4105
    113 H           3.4797    8.5854    5.4033 H       0  HOH0        0.2052
    114 H           4.4403    9.5361    4.6927 H       0  HOH0        0.2052
    115 O           4.0493    4.2163    8.3392 O.3    39  HOH39      -0.4105
    116 H           4.9586    4.4105    8.6120 H       0  HOH0        0.2052
    117 H           3.5186    4.8806    8.8040 H       0  HOH0        0.2052
    118 O           5.4674    4.7896   10.5893 O.3    40  HOH40      -0.4105
    119 H           5.9952    5.3561   11.1720 H       0  HOH0        0.2052
    120 H           4.5606    5.1087   10.7112 H       0  HOH0        0.2052
    121 O           3.1943   11.4919    0.1809 O.3    41  HOH41      -0.4105
    122 H           3.4069   10.6702    0.6484 H       0  HOH0        0.2052
    123 H           2.6352   11.2039   -0.5562 H       0  HOH0        0.2052
    124 O           2.8533   10.3185    2.8465 O.3    42  HOH42      -0.4105
    125 H           2.7027   10.0760    3.7724 H       0  HOH0        0.2052
    126 H           3.8142   10.2518    2.7403 H       0  HOH0        0.2052
    127 O           4.0707   10.8129    6.5876 O.3    43  HOH43      -0.4105
    128 H           4.4409    9.9768    6.9083 H       0  HOH0        0.2052
    129 H           3.2219   10.5581    6.1958 H       0  HOH0        0.2052
    130 O           4.1601   11.0024    9.1772 O.3    44  HOH44      -0.4105
    131 H           3.4550   11.0393    8.5136 H       0  HOH0        0.2052
    132 H           4.1553   10.0797    9.4729 H       0  HOH0        0.2052
    133 O           4.3828   11.6107   11.1666 O.3    45  HOH45      -0.4105
    134 H           3.7395   11.0104   11.5725 H       0  HOH0        0.2052
    135 H           4.9997   11.8138   11.8857 H       0  HOH0        0.2052
    136 O           3.8269   13.5579    0.6140 O.3    46  HOH46      -0.4105
    137 H           3.6199   14.2537    1.2558 H       0  HOH0        0.2052
    138 H           3.4757   13.8988   -0.2223 H       0  HOH0        0.2052
    139 O           4.2346   12.3303    2.3361 O.3    47  HOH47      -0.4105
    140 H           3.2973   12.2980    2.0926 H       0  HOH0        0.2052
    141 H           4.2869   13.0620    2.9691 H       0  HOH0        0.2052
    142 O           3.3488   12.1725    4.7803 O.3    48  HOH48      -0.4105
    143 H           2.6669   12.1217    4.0937 H       0  HOH0        0.2052
    144 H           4.0286   11.5499    4.4816 H       0  HOH0        0.2052
    145 O           3.8825   13.1673    9.8638 O.3    49  HOH49      -0.4105
    146 H           3.6903   14.1025   10.0291 H       0  HOH0        0.2052
    147 H           3.0542   12.7155   10.0844 H       0  HOH0        0.2052
    148 O           3.4617   13.3840   12.1406 O.3    50  HOH50      -0.4105
    149 H           3.4853   12.8240   12.9310 H       0  HOH0        0.2052
    150 H           4.3350   13.8035   12.1247 H       0  HOH0        0.2052
    151 O           7.8363    0.8268    1.4169 O.3    51  HOH51      -0.4105
    152 H           6.9770    0.3791    1.4213 H       0  HOH0        0.2052
    153 H           8.3109    0.4297    2.1626 H       0  HOH0        0.2052
    154 O           6.1237    1.9601    3.0308 O.3    52  HOH52      -0.4105
    155 H           5.7424    2.4051    3.8026 H       0  HOH0        0.2052
    156 H           6.4808    1.1339    3.3898 H       0  HOH0        0.2052
    157 O           6.2347    0.2186    7.5068 O.3    53  HOH53      -0.4105
    158 H           6.5212    0.8702    6.8492 H       0  HOH0        0.2052
    159 H           5.7304    0.7403    8.1490 H       0  HOH0        0.2052
    160 O           6.8699    0.9038   10.1832 O.3    54  HOH54      -0.4105
    161 H           7.4326    0.4372    9.5471 H       0  HOH0        0.2052
    162 H           6.0684    0.3612   10.2288 H       0  HOH0        0.2052
    163 O           7.5922    0.7688   12.2970 O.3    55  HOH55      -0.4105
    164 H           7.9282    1.5772   11.8816 H       0  HOH0        0.2052
    165 H           6.6367    0.9171   12.3587 H       0  HOH0        0.2052
    166 O           6.8519    3.0906    0.4783 O.3    56  HOH56      -0.4105
    167 H           7.7288    2.7546    0.2395 H       0  HOH0        0.2052
    168 H           6.3801    2.3070    0.7981 H       0  HOH0        0.2052
    169 O           8.0190    2.7007    2.3422 O.3    57  HOH57      -0.4105
    170 H           8.2359    2.3825    3.2314 H       0  HOH0        0.2052
    171 H           7.8782    3.6519    2.4618 H       0  HOH0        0.2052
    172 O           5.6549    3.4397    6.7066 O.3    58  HOH58      -0.4105
    173 H           6.4074    3.8212    7.1831 H       0  HOH0        0.2052
    174 H           5.4094    2.6669    7.2370 H       0  HOH0        0.2052
    175 O           6.5858    2.6463    9.1185 O.3    59  HOH59      -0.4105
    176 H           6.8581    3.5647    9.2646 H       0  HOH0        0.2052
    177 H           7.2402    2.3052    8.4905 H       0  HOH0        0.2052
    178 O           6.4547    3.0360   11.6421 O.3    60  HOH60      -0.4105
    179 H           6.5058    3.1851   12.5982 H       0  HOH0        0.2052
    180 H           7.1179    3.6397   11.2753 H       0  HOH0        0.2052
    181 O           6.6629    8.4835    1.7231 O.3    61  HOH61      -0.4105
    182 H           7.3781    9.1371    1.7024 H       0  HOH0        0.2052
    183 H           5.8593    9.0184    1.8064 H       0  HOH0        0.2052
    184 O           7.9558    8.4319    3.6133 O.3    62  HOH62      -0.4105
    185 H           8.1813    9.0245    4.3461 H       0  HOH0        0.2052
    186 H           7.0408    8.1709    3.7965 H       0  HOH0        0.2052
    187 O           8.0343    6.2848    5.0193 O.3    63  HOH63      -0.4105
    188 H           8.3499    6.4114    4.1120 H       0  HOH0        0.2052
    189 H           8.0760    7.1716    5.4075 H       0  HOH0        0.2052
    190 O           5.3501    6.9502    9.8341 O.3    64  HOH64      -0.4105
    191 H           4.6022    7.2184   10.3888 H       0  HOH0        0.2052
    192 H           4.9340    6.5199    9.0722 H       0  HOH0        0.2052
    193 O           6.5717    8.2332   11.3833 O.3    65  HOH65      -0.4105
    194 H           6.9491    8.0844   10.5033 H       0  HOH0        0.2052
    195 H           6.3492    7.3435   11.6961 H       0  HOH0        0.2052
    196 O           5.4814   11.0668    1.2375 O.3    66  HOH66      -0.4105
    197 H           5.3687   11.7859    0.5978 H       0  HOH0        0.2052
    198 H           6.4419   10.9983    1.3459 H       0  HOH0        0.2052
    199 O           5.7533   10.5861    3.3735 O.3    67  HOH67      -0.4105
    200 H           6.6620   10.2589    3.4513 H       0  HOH0        0.2052
    201 H           5.8389   11.5444    3.4890 H       0  HOH0        0.2052
    202 O           5.9155   10.8715    5.5246 O.3    68  HOH68      -0.4105
    203 H           6.6565   11.4911    5.6019 H       0  HOH0        0.2052
    204 H           6.3374    9.9993    5.5383 H       0  HOH0        0.2052
    205 O           6.4149   10.9230   10.4715 O.3    69  HOH69      -0.4105
    206 H           6.2711   11.1127    9.5322 H       0  HOH0        0.2052
    207 H           5.9170   10.1058   10.6242 H       0  HOH0        0.2052
    208 O           8.1378   10.3452   11.3302 O.3    70  HOH70      -0.4105
    209 H           7.7611    9.9190   12.1147 H       0  HOH0        0.2052
    210 H           8.4541    9.6049   10.7908 H       0  HOH0        0.2052
    211 O           7.1922   12.9317    1.8275 O.3    71  HOH71      -0.4105
    212 H           7.4986   12.4278    2.5963 H       0  HOH0        0.2052
    213 H           6.2620   13.1180    2.0254 H       0  HOH0        0.2052
    214 O           4.9878   12.9036    5.8717 O.3    72  HOH72      -0.4105
    215 H           4.4011   13.6606    6.0193 H       0  HOH0        0.2052
    216 H           5.4171   13.1017    5.0258 H       0  HOH0        0.2052
    217 O           5.4186   11.9873    7.7413 O.3    73  HOH73      -0.4105
    218 H           4.8349   12.7032    8.0343 H       0  HOH0        0.2052
    219 H           6.2977   12.3945    7.7236 H       0  HOH0        0.2052
    220 O           5.9903   13.0759   10.3947 O.3    74  HOH74      -0.4105
    221 H           6.9572   13.0357   10.3443 H       0  HOH0        0.2052
    222 H           5.8030   14.0131   10.5544 H       0  HOH0        0.2052
    223 O           6.7699   12.4904   12.9443 O.3    75  HOH75      -0.4105
    224 H           7.0629   11.9070   12.2282 H       0  HOH0        0.2052
    225 H           6.6618   13.3522   12.5147 H       0  HOH0        0.2052
    226 O           9.5921    1.5862    0.1999 O.3    76  HOH76      -0.4105
    227 H           9.5553    1.9733    1.0874 H       0  HOH0        0.2052
    228 H           9.9147    0.6850    0.3508 H       0  HOH0        0.2052
    229 O          10.4691    1.1489    2.6960 O.3    77  HOH77      -0.4105
    230 H           9.8996    1.0243    3.4700 H       0  HOH0        0.2052
    231 H          10.5722    0.2556    2.3349 H       0  HOH0        0.2052
    232 O          10.5762    2.4522    8.1129 O.3    78  HOH78      -0.4105
    233 H           9.8967    3.1400    8.1762 H       0  HOH0        0.2052
    234 H          10.1276    1.6508    8.4219 H       0  HOH0        0.2052
    235 O           9.3261    0.6629   10.5031 O.3    79  HOH79      -0.4105
    236 H          10.2778    0.4822   10.5274 H       0  HOH0        0.2052
    237 H           8.9240   -0.1548   10.8325 H       0  HOH0        0.2052
    238 O           9.9075    1.6091   12.5612 O.3    80  HOH80      -0.4105
    239 H           9.8171    0.6470   12.6326 H       0  HOH0        0.2052
    240 H           9.7272    1.9283   13.4582 H       0  HOH0        0.2052
    241 O          10.2255    3.8891    0.5392 O.3    81  HOH81      -0.4105
    242 H          10.3097    4.8530    0.4880 H       0  HOH0        0.2052
    243 H          10.6209    3.5753   -0.2880 H       0  HOH0        0.2052
    244 O           9.9712    3.7235    3.4218 O.3    82  HOH82      -0.4105
    245 H          10.2260    3.0147    4.0314 H       0  HOH0        0.2052
    246 H          10.1626    3.3582    2.5450 H       0  HOH0        0.2052
    247 O          10.1380    4.3862    5.5957 O.3    83  HOH83      -0.4105
    248 H           9.2156    4.5288    5.3352 H       0  HOH0        0.2052
    249 H          10.1666    4.6716    6.5213 H       0  HOH0        0.2052
    250 O           9.0590    2.9563   10.7489 O.3    84  HOH84      -0.4105
    251 H           9.3327    3.8410   10.4638 H       0  HOH0        0.2052
    252 H           8.7429    2.5354    9.9354 H       0  HOH0        0.2052
    253 O           8.7612    4.4596   12.4394 O.3    85  HOH85      -0.4105
    254 H           9.1248    4.9386   13.1992 H       0  HOH0        0.2052
    255 H           8.6867    3.5457   12.7526 H       0  HOH0        0.2052
    256 O           8.7482    7.5335    1.2521 O.3    86  HOH86      -0.4105
    257 H           9.2965    6.8148    0.9032 H       0  HOH0        0.2052
    258 H           9.1944    8.3377    0.9470 H       0  HOH0        0.2052
    259 O          10.0990    7.9228    2.8445 O.3    87  HOH87      -0.4105
    260 H          10.0536    6.9573    2.9130 H       0  HOH0        0.2052
    261 H          10.1818    8.2190    3.7634 H       0  HOH0        0.2052
    262 O          10.0978    6.7366    5.8524 O.3    88  HOH88      -0.4105
    263 H          10.1387    7.7041    5.8168 H       0  HOH0        0.2052
    264 H          10.2625    6.4616    4.9380 H       0  HOH0        0.2052
    265 O           7.4116    6.0845    9.8703 O.3    89  HOH89      -0.4105
    266 H           6.9735    5.6631    9.1157 H       0  HOH0        0.2052
    267 H           7.9600    5.3796   10.2462 H       0  HOH0        0.2052
    268 O           8.5306    7.2377   11.5303 O.3    90  HOH90      -0.4105
    269 H           8.2827    6.4746   12.0737 H       0  HOH0        0.2052
    270 H           8.6631    7.9500   12.1736 H       0  HOH0        0.2052
    271 O           9.3073   10.7098    0.3599 O.3    91  HOH91      -0.4105
    272 H           9.6833   11.2640    1.0602 H       0  HOH0        0.2052
    273 H           8.3680   10.6474    0.5898 H       0  HOH0        0.2052
    274 O           8.5767   10.5126    2.6746 O.3    92  HOH92      -0.4105
    275 H           8.9010   11.0151    3.4370 H       0  HOH0        0.2052
    276 H           9.2472    9.8253    2.5448 H       0  HOH0        0.2052
    277 O           9.9741    9.9090    5.1493 O.3    93  HOH93      -0.4105
    278 H           9.4922    9.8661    5.9889 H       0  HOH0        0.2052
    279 H          10.1563   10.8534    5.0319 H       0  HOH0        0.2052
    280 O          10.1210   10.9499   10.9092 O.3    94  HOH94      -0.4105
    281 H          10.3429   10.5337   10.0627 H       0  HOH0        0.2052
    282 H          10.9388   11.3989   11.1708 H       0  HOH0        0.2052
    283 O           9.8368   10.2762   12.8421 O.3    95  HOH95      -0.4105
    284 H          10.6209   10.7451   13.1650 H       0  HOH0        0.2052
    285 H          10.1991    9.5104   12.3718 H       0  HOH0        0.2052
    286 O           8.8330   13.1261    0.4777 O.3    96  HOH96      -0.4105
    287 H           9.6605   13.1380   -0.0263 H       0  HOH0        0.2052
    288 H           8.2250   12.6205   -0.0824 H       0  HOH0        0.2052
    289 O          10.1388   12.8261    3.2129 O.3    97  HOH97      -0.4105
    290 H           9.5440   12.8467    2.4482 H       0  HOH0        0.2052
    291 H          10.3972   13.7522    3.3335 H       0  HOH0        0.2052
    292 O          10.5102   11.9886    7.5192 O.3    98  HOH98      -0.4105
    293 H          10.1641   11.1751    7.9160 H       0  HOH0        0.2052
    294 H           9.9423   12.1324    6.7473 H       0  HOH0        0.2052
    295 O          10.0376   13.1196    9.3518 O.3    99  HOH99      -0.4105
    296 H           9.3836   12.4159    9.4786 H       0  HOH0        0.2052
    297 H          10.8699   12.7219    9.6483 H       0  HOH0        0.2052
    298 O           8.9203   12.6009   11.5320 O.3   100  HOH100     -0.4105
    299 H           9.1486   12.3039   12.4257 H       0  HOH0        0.2052
    300 H           9.0705   13.5579   11.5579 H       0  HOH0        0.2052
    301 O          11.6683    1.9626    1.2593 O.3   101  HOH101     -0.4105
    302 H          12.4254    1.4891    1.6357 H       0  HOH0        0.2052
    303 H          11.7800    1.8594    0.3023 H       0  HOH0        0.2052
    304 O          12.5483    1.0810    3.8726 O.3   102  HOH102     -0.4105
    305 H          12.3939    0.1909    3.5221 H       0  HOH0        0.2052
    306 H          11.7499    1.2715    4.3876 H       0  HOH0        0.2052
    307 O          11.8495    1.1284    6.9973 O.3   103  HOH103     -0.4105
    308 H          11.0655    1.1726    6.4297 H       0  HOH0        0.2052
    309 H          12.5911    1.1450    6.3739 H       0  HOH0        0.2052
    310 O          12.0629    0.9731    9.1115 O.3   104  HOH104     -0.4105
    311 H          12.5275    1.8021    8.9224 H       0  HOH0        0.2052
    312 H          12.4040    0.7060    9.9783 H       0  HOH0        0.2052
    313 O          11.7758    1.3017   13.3476 O.3   105  HOH105     -0.4105
    314 H          12.6272    1.6197   13.6838 H       0  HOH0        0.2052
    315 H          12.0101    0.8059   12.5487 H       0  HOH0        0.2052
    316 O          12.4352    3.8881    0.8338 O.3   106  HOH106     -0.4105
    317 H          12.2477    4.6741    1.3686 H       0  HOH0        0.2052
    318 H          13.2422    3.5240    1.2277 H       0  HOH0        0.2052
    319 O          12.1777    3.9289    3.3165 O.3   107  HOH107     -0.4105
    320 H          13.1181    4.1543    3.3781 H       0  HOH0        0.2052
    321 H          12.1764    2.9753    3.1445 H       0  HOH0        0.2052
    322 O          11.8454    3.0744    5.4661 O.3   108  HOH108     -0.4105
    323 H          11.8179    3.2807    6.4124 H       0  HOH0        0.2052
    324 H          12.7919    3.0382    5.2618 H       0  HOH0        0.2052
    325 O          10.9878    2.4159   10.3497 O.3   109  HOH109     -0.4105
    326 H          11.2977    3.2698   10.0124 H       0  HOH0        0.2052
    327 H          11.5608    2.2435   11.1119 H       0  HOH0        0.2052
    328 O          10.8316    3.5381   12.6221 O.3   110  HOH110     -0.4105
    329 H          10.8538    4.1572   11.8770 H       0  HOH0        0.2052
    330 H          11.7565    3.4786   12.9047 H       0  HOH0        0.2052
    331 O          11.4099    6.6803    1.1831 O.3   111  HOH111     -0.4105
    332 H          11.5392    7.6363    1.2744 H       0  HOH0        0.2052
    333 H          11.7773    6.4767    0.3100 H       0  HOH0        0.2052
    334 O          12.0824    6.7003    3.4302 O.3   112  HOH112     -0.4105
    335 H          12.3109    7.6361    3.3256 H       0  HOH0        0.2052
    336 H          12.6632    6.2458    2.8017 H       0  HOH0        0.2052
    337 O          12.0902    5.5827    5.8502 O.3   113  HOH113     -0.4105
    338 H          12.3363    6.5000    5.6577 H       0  HOH0        0.2052
    339 H          11.9940    5.1776    4.9752 H       0  HOH0        0.2052
    340 O          10.3525    6.1160   11.4672 O.3   114  HOH114     -0.4105
    341 H          10.1581    5.8087   10.5690 H       0  HOH0        0.2052
    342 H          10.7225    7.0019   11.3366 H       0  HOH0        0.2052
    343 O          11.4736    5.5499   13.3475 O.3   115  HOH115     -0.4105
    344 H          10.9842    6.3617   13.5486 H       0  HOH0        0.2052
    345 H          12.0636    5.8057   12.6227 H       0  HOH0        0.2052
    346 O          11.5789   10.2684    0.6765 O.3   116  HOH116     -0.4105
    347 H          11.3901   10.5522   -0.2306 H       0  HOH0        0.2052
    348 H          10.9537    9.5442    0.8301 H       0  HOH0        0.2052
    349 O          11.2705   10.2175    3.3618 O.3   117  HOH117     -0.4105
    350 H          11.6507    9.5591    2.7611 H       0  HOH0        0.2052
    351 H          11.0136   10.9466    2.7776 H       0  HOH0        0.2052
    352 O          11.8668   10.1337    6.1052 O.3   118  HOH118     -0.4105
    353 H          11.4635    9.7984    6.9200 H       0  HOH0        0.2052
    354 H          12.0069   11.0757    6.2838 H       0  HOH0        0.2052
    355 O          12.0908   11.0223    8.8996 O.3   119  HOH119     -0.4105
    356 H          12.4576   11.7739    8.4103 H       0  HOH0        0.2052
    357 H          12.4699   11.1131    9.7867 H       0  HOH0        0.2052
    358 O          12.9664   11.1949   11.9328 O.3   120  HOH120     -0.4105
    359 H          12.5743   10.3212   12.0803 H       0  HOH0        0.2052
    360 H          12.5684   11.7493   12.6207 H       0  HOH0        0.2052
    361 O          11.3328   12.5541    1.2885 O.3   121  HOH121     -0.4105
    362 H          11.2938   13.5200    1.3557 H       0  HOH0        0.2052
    363 H          12.0480   12.3922    0.6550 H       0  HOH0        0.2052
    364 O          12.2980   12.8143    3.1098 O.3   122  HOH122     -0.4105
    365 H          12.7021   12.0142    3.4780 H       0  HOH0        0.2052
    366 H          12.9433   13.5115    3.3005 H       0  HOH0        0.2052
    367 O          11.6044   13.1816    5.6996 O.3   123  HOH123     -0.4105
    368 H          12.5399   13.2875    5.4706 H       0  HOH0        0.2052
    369 H          11.2421   12.6592    4.9683 H       0  HOH0        0.2052
    370 O          12.7798   13.0256   10.7511 O.3   124  HOH124     -0.4105
    371 H          13.1368   13.2636    9.8823 H       0  HOH0        0.2052
    372 H          13.4079   13.4160   11.3773 H       0  HOH0        0.2052
    373 O          10.9494   13.4800   12.9205 O.3   125  HOH125     -0.4105
    374 H          11.4646   14.2941   13.0240 H       0  HOH0        0.2052
    375 H          11.0766   13.2392   11.9906 H       0  HOH0        0.2052
@<TRIPOS>BOND
     1     1     2    1
     2     1     3    1
     3     4     5    1
     4     4     6    1
     5     7     8    1
     6     7     9    1
     7    10    11    1
     8    10    12    1
     9    13    14    1
    10    13    15    1
    11    16    17    1
    12    16    18    1
    13    19    20    1
    14    19    21    1
    15    22    23    1
    16    22    24    1
    17    25    26    1
    18    25    27    1
    19    28    29    1
    20    28    30    1
    21    31    32    1
    22    31    33    1
    23    34    35    1
    24    34    36    1
    25    37    38    1
    26    37    39    1
    27    40    41    1
    28    40    42    1
    29    43    44    1
    30    43    45    1
    31    46    47    1
    32    46    48    1
    33    49    50    1
    34    49    51    1
    35    52    53    1
    36    52    54    1
    37    55    56    1
    38    55    57    1
    39    58    59    1
    40    58    60    1
    41    61    62    1
    42    61    63    1
    43    64    65    1
    44    64    66    1
    45    67    68    1
    46    67    69    1
    47    70    71    1
    48    70    72    1
    49    73    74    1
    50    73    75    1
    51    76    77    1
    52    76    78    1
    53    79    80    1
    54    79    81    1
    55    82    83    1
    56    82    84    1
    57    85    86    1
    58    85    87    1
    59    88    89    1
    60    88    90    1
    61    91    92    1
    62    91    93    1
    63    94    95    1
    64    94    96    1
    65    97    98    1
    66    97    99    1
    67   100   101    1
    68   100   102    1
    69   103   104    1
    70   103   105    1
    71   106   107    1
    72   106   108    1
    73   109   110    1
    74   109   111    1
    75   112   113    1
    76   112   114    1
    77   115   116    1
    78   115   117    1
    79   118   119    1
    80   118   120    1
    81   121   122    1
    82   121   123    1
    83   124   125    1
    84   124   126    1
    85   127   128    1
    86   127   129    1
    87   130   131    1
    88   130   132    1
    89   133   134    1
    90   133   135    1
    91   136   137    1
    92   136   138    1
    93   139   140    1
    94   139   141    1
    95   142   143    1
    96   142   144    1
    97   145   146    1
    98   145   147    1
    99   148   149    1
   100   148   150    1
   101   151   152    1
   102   151   153    1
   103   154   155    1
   104   154   156    1
   105   157   158    1
   106   157   159    1
   107   160   161    1
   108   160   162    1
   109   163   164    1
   110   163   165    1
   111   166   167    1
   112   166   168    1
   113   169   170    1
   114   169   171    1
   115   172   173    1
   116   172   174    1
   117   175   176    1
   118   175   177    1
   119   178   179    1
   120   178   180    1
   121   181   182    1
   122   181   183    1
   123   184   185    1
   124   184   186    1
   125   187   188    1
   126   187   189    1
   127   190   191    1
   128   190   192    1
   129   193   194    1
   130   193   195    1
   131   196   197    1
   132   196   198    1
   133   199   200    1
   134   199   201    1
   135   202   203    1
   136   202   204    1
   137   205   206    1
   138   205   207    1
   139   208   209    1
   140   208   210    1
   141   211   212    1
   142   211   213    1
   143   214   215    1
   144   214   216    1
   145   217   218    1
   146   217   219    1
   147   220   221    1
   148   220   222    1
   149   223   224    1
   150   223   225    1
   151   226   227    1
   152   226   228    1
   153   229   230    1
   154   229   231    1
   155   232   233    1
   156   232   234    1
   157   235   236    1
   158   235   237    1
   159   238   239    1
   160   238   240    1
   161   241   242    1
   162   241   243    1
   163   244   245    1
   164   244   246    1
   165   247   248    1
   166   247   249    1
   167   250   251    1
   168   250   252    1
   169   253   254    1
   170   253   255    1
   171   256   257    1
   172   256   258    1
   173   259   260    1
   174   259   261    1
   175   262   263    1
   176   262   264    1
   177   265   266    1
   178   265   267    1
   179   268   269    1
   180   268   270    1
   181   271   272    1
   182   271   273    1
   183   274   275    1
   184   274   276    1
   185   277   278    1
   186   277   279    1
   187   280   281    1
   188   280   282    1
   189   283   284    1
   190   283   285    1
   191   286   287    1
   192   286   288    1
   193   289   290    1
   194   289   291    1
   195   292   293    1
   196   292   294    1
   197   295   296    1
   198   295   297    1
   199   298   299    1
   200   298   300    1
   201   301   302    1
   202   301   303    1
   203   304   305    1
   204   304   306    1
   205   307   308    1
   206   307   309    1
   207   310   311    1
   208   310   312    1
   209   313   314    1
   210   313   315    1
   211   316   317    1
   212   316   318    1
   213   319   320    1
   214   319   321    1
   215   322   323    1
   216   322   324    1
   217   325   326    1
   218   325   327    1
   219   328   329    1
   220   328   330    1
   221   331   332    1
   222   331   333    1
   223   334   335    1
   224   334   336    1
   225   337   338    1
   226   337   339    1
   227   340   341    1
   228   340   342    1
   229   343   344    1
   230   343   345    1
   231   346   347    1
   232   346   348    1
   233   349   350    1
   234   349   351    1
   235   352   353    1
   236   352   354    1
   237   355   356    1
   238   355   357    1
   239   358   359    1
   240   358   360    1
   241   361   362    1
   242   361   363    1
   243   364   365    1
   244   364   366    1
   245   367   368    1
   246   367   369    1
   247   370   371    1
   248   370   372    1
   249   373   374    1
   250   373   375    1
