@<TRIPOS>MOLECULE
*****
 375 250 0 0 0
SMALL
GASTEIGER

@<TRIPOS>ATOM
      1 O           1.3866    1.2173    1.5032 O.3     1  HOH1       -0.4105
      2 H           1.5664    2.0916    1.8802 H       0  HOH0        0.2052
      3 H           1.2781    1.3887    0.5557 H       0  HOH0        0.2052
      4 O           1.6029    1.4380    4.6847 O.3     2  HOH2       -0.4105
      5 H           1.3920    1.0718    3.8128 H       0  HOH0        0.2052
      6 H           2.3823    0.9362    4.9671 H       0  HOH0        0.2052
      7 O           1.4103    0.9693    7.8783 O.3     3  HOH3       -0.4105
      8 H           1.0236    1.8005    8.1922 H       0  HOH0        0.2052
      9 H           1.4800    1.0910    6.9195 H       0  HOH0        0.2052
     10 O           0.6400    0.5569    9.9046 O.3     4  HOH4       -0.4105
     11 H           1.0704   -0.0207   10.5528 H       0  HOH0        0.2052
     12 H           0.7137    1.4412   10.2937 H       0  HOH0        0.2052
     13 O           1.5019    0.9774   12.4061 O.3     5  HOH5       -0.4105
     14 H           1.7450    1.8526   12.0688 H       0  HOH0        0.2052
     15 H           0.5341    1.0028   12.4472 H       0  HOH0        0.2052
     16 O           1.9597    3.8724    0.7083 O.3     6  HOH6       -0.4105
     17 H           2.5061    4.6599    0.5662 H       0  HOH0        0.2052
     18 H           2.3176    3.2234    0.0841 H       0  HOH0        0.2052
     19 O           1.3517    3.9741    3.9381 O.3     7  HOH7       -0.4105
     20 H           1.9860    3.6401    4.5901 H       0  HOH0        0.2052
     21 H           0.8934    3.1784    3.6285 H       0  HOH0        0.2052
     22 O           1.3005    3.8642    6.6322 O.3     8  HOH8       -0.4105
     23 H           0.8597    3.0365    6.3881 H       0  HOH0        0.2052
     24 H           1.3326    3.8356    7.6003 H       0  HOH0        0.2052
     25 O           2.3495    3.1788   10.4206 O.3     9  HOH9       -0.4105
     26 H           2.2235    3.1477    9.4603 H       0  HOH0        0.2052
     27 H           2.8855    3.9738   10.5607 H       0  HOH0        0.2052
     28 O           1.5207    4.0884   12.1726 O.3    10  HOH10      -0.4105
     29 H           1.4298    3.6988   13.0551 H       0  HOH0        0.2052
     30 H           0.7181    3.8068   11.7085 H       0  HOH0        0.2052
     31 O           1.2545    6.7719    1.2958 O.3    11  HOH11      -0.4105
     32 H           1.2156    7.7307    1.1618 H       0  HOH0        0.2052
     33 H           1.1608    6.4068    0.4031 H       0  HOH0        0.2052
     34 O           1.2705    7.9488    3.3510 O.3    12  HOH12      -0.4105
     35 H           1.5965    8.3195    4.1848 H       0  HOH0        0.2052
     36 H           1.5609    7.0247    3.3763 H       0  HOH0        0.2052
     37 O           1.6278    8.8634    7.3881 O.3    13  HOH13      -0.4105
     38 H           1.5687    8.8693    6.4209 H       0  HOH0        0.2052
     39 H           1.6885    7.9228    7.6131 H       0  HOH0        0.2052
     40 O           1.5117    7.9689    9.8129 O.3    14  HOH14      -0.4105
     41 H           2.2045    8.6311    9.6697 H       0  HOH0        0.2052
     42 H           1.9423    7.1287    9.5948 H       0  HOH0        0.2052
     43 O           1.4834    6.2124   11.5761 O.3    15  HOH15      -0.4105
     44 H           1.5083    7.1523   11.8105 H       0  HOH0        0.2052
     45 H           2.4057    5.9980   11.3702 H       0  HOH0        0.2052
     46 O           0.8465   10.8456    0.9362 O.3    16  HOH16      -0.4105
     47 H           1.3617   10.0316    1.0407 H       0  HOH0        0.2052
     48 H           1.4182   11.5338    1.3082 H       0  HOH0        0.2052
     49 O           0.5338   10.3210    3.0300 O.3    17  HOH17      -0.4105
     50 H           0.3039    9.9111    3.8774 H       0  HOH0        0.2052
     51 H           0.6793   11.2528    3.2525 H       0  HOH0        0.2052
     52 O           0.6586   10.6972    5.8888 O.3    18  HOH18      -0.4105
     53 H           0.8047   11.0306    6.7868 H       0  HOH0        0.2052
     54 H           1.0943   11.3516    5.3224 H       0  HOH0        0.2052
     55 O           1.3536   11.2349    9.8651 O.3    19  HOH19      -0.4105
     56 H           2.0473   10.7129   10.2957 H       0  HOH0        0.2052
     57 H           0.5841   11.1238   10.4434 H       0  HOH0        0.2052
     58 O           1.6773    9.5284   12.0357 O.3    20  HOH20      -0.4105
     59 H           1.4483   10.4050   12.3795 H       0  HOH0        0.2052
     60 H           0.9015    9.2712   11.5152 H       0  HOH0        0.2052
     61 O           0.8387   13.4438    0.6069 O.3    21  HOH21      -0.4105
     62 H           1.3523   14.2222    0.8700 H       0  HOH0        0.2052
     63 H           1.3299   13.0829   -0.1464 H       0  HOH0        0.2052
     64 O           1.1891   13.8455    3.7154 O.3    22  HOH22      -0.4105
     65 H           0.6988   13.2712    4.3226 H       0  HOH0        0.2052
     66 H           1.1478   13.3790    2.8672 H       0  HOH0        0.2052
     67 O           2.3817   12.4710    7.0668 O.3    23  HOH23      -0.4105
     68 H           2.0346   12.6928    7.9439 H       0  HOH0        0.2052
     69 H           1.8398   12.9980    6.4606 H       0  HOH0        0.2052
     70 O           1.2506   14.2188    9.8807 O.3    24  HOH24      -0.4105
     71 H           1.5746   14.3766   10.7802 H       0  HOH0        0.2052
     72 H           0.8715   13.3280    9.9214 H       0  HOH0        0.2052
     73 O           0.9689   12.6622   12.0827 O.3    25  HOH25      -0.4105
     74 H           1.7967   12.4166   11.6429 H       0  HOH0        0.2052
     75 H           1.2168   13.4092   12.6479 H       0  HOH0        0.2052
     76 O           3.5022    1.7641    1.0578 O.3    26  HOH26      -0.4105
     77 H           3.4626    1.0490    0.4052 H       0  HOH0        0.2052
     78 H           4.3380    1.6103    1.5233 H       0  HOH0        0.2052
     79 O           3.3364    0.0001    3.3879 O.3    27  HOH27      -0.4105
     80 H           3.0157    0.2244    2.5015 H       0  HOH0        0.2052
     81 H           4.1562    0.5091    3.4760 H       0  HOH0        0.2052
     82 O           4.1195    0.9323    6.6726 O.3    28  HOH28      -0.4105
     83 H           4.2277    0.3149    5.9336 H       0  HOH0        0.2052
     84 H           3.5814    0.4409    7.3113 H       0  HOH0        0.2052
     85 O           2.7384    1.0752    9.5308 O.3    29  HOH29      -0.4105
     86 H           2.8810    1.1954   10.4817 H       0  HOH0        0.2052
     87 H           2.9203    0.1348    9.3838 H       0  HOH0        0.2052
     88 O           3.6764    0.2932   12.2384 O.3    30  HOH30      -0.4105
     89 H           4.4425    0.7340   11.8414 H       0  HOH0        0.2052
     90 H           3.5495    0.7568   13.0798 H       0  HOH0        0.2052
     91 O           4.7139    4.4046    1.3865 O.3    31  HOH31      -0.4105
     92 H           4.3828    3.6983    0.8116 H       0  HOH0        0.2052
     93 H           5.2717    3.9412    2.0292 H       0  HOH0        0.2052
     94 O           3.6104    3.0347    2.9384 O.3    32  HOH32      -0.4105
     95 H           2.9461    3.6180    2.5416 H       0  HOH0        0.2052
     96 H           3.0870    2.3398    3.3650 H       0  HOH0        0.2052
     97 O           3.3038    3.0482    6.9049 O.3    33  HOH33      -0.4105
     98 H           2.9990    2.5566    6.1275 H       0  HOH0        0.2052
     99 H           3.0595    2.4807    7.6514 H       0  HOH0        0.2052
    100 O           4.3284    2.5698    9.7335 O.3    34  HOH34      -0.4105
    101 H           4.9494    2.4747   10.4712 H       0  HOH0        0.2052
    102 H           4.5563    1.8386    9.1399 H       0  HOH0        0.2052
    103 O           4.2420    3.4684   12.2724 O.3    35  HOH35      -0.4105
    104 H           3.6562    4.1803   12.5706 H       0  HOH0        0.2052
    105 H           3.6437    2.7219   12.1186 H       0  HOH0        0.2052
    106 O           3.8097    6.2194    1.7455 O.3    36  HOH36      -0.4105
    107 H           3.1211    5.8544    2.3214 H       0  HOH0        0.2052
    108 H           3.3174    6.5892    0.9973 H       0  HOH0        0.2052
    109 O           3.4968    8.0991    3.1299 O.3    37  HOH37      -0.4105
    110 H           4.4481    8.2206    2.9912 H       0  HOH0        0.2052
    111 H           3.1118    8.2457    2.2529 H       0  HOH0        0.2052
    112 O           4.3521    8.7054    5.1977 O.3    38  HOH38      -0.4105
    113 H           3.4294    8.4500    5.3474 H       0  HOH0        0.2052
    114 H           4.2878    9.5301    4.6931 H       0  HOH0        0.2052
    115 O           4.2475    4.1926    8.3524 O.3    39  HOH39      -0.4105
    116 H           5.1021    4.3193    8.7910 H       0  HOH0        0.2052
    117 H           3.6478    4.7826    8.8333 H       0  HOH0        0.2052
    118 O           5.1719    4.6777   10.8018 O.3    40  HOH40      -0.4105
    119 H           5.9260    5.2189   11.0796 H       0  HOH0        0.2052
    120 H           4.4167    5.2822   10.8575 H       0  HOH0        0.2052
    121 O           3.2790   11.4692    0.2456 O.3    41  HOH41      -0.4105
    122 H           3.3257   10.5963    0.6636 H       0  HOH0        0.2052
    123 H           2.6330   11.3532   -0.4673 H       0  HOH0        0.2052
    124 O           2.7287   10.3086    2.8231 O.3    42  HOH42      -0.4105
    125 H           2.5495   10.0457    3.7384 H       0  HOH0        0.2052
    126 H           3.6921   10.2412    2.7446 H       0  HOH0        0.2052
    127 O           3.6879   10.8480    6.5940 O.3    43  HOH43      -0.4105
    128 H           4.1386   10.0674    6.9498 H       0  HOH0        0.2052
    129 H           2.9209   10.4832    6.1276 H       0  HOH0        0.2052
    130 O           3.9976   11.0284    9.3299 O.3    44  HOH44      -0.4105
    131 H           3.3000   11.1069    8.6620 H       0  HOH0        0.2052
    132 H           3.9841   10.0906    9.5735 H       0  HOH0        0.2052
    133 O           4.1377   11.6280   11.2662 O.3    45  HOH45      -0.4105
    134 H           3.5280   11.0591   11.7598 H       0  HOH0        0.2052
    135 H           4.9308   11.6590   11.8220 H       0  HOH0        0.2052
    136 O           3.6100   13.5098    0.5678 O.3    46  HOH46      -0.4105
    137 H           3.4020   14.1789    1.2371 H       0  HOH0        0.2052
    138 H           3.2714   13.8901   -0.2565 H       0  HOH0        0.2052
    139 O           4.0900   12.1595    2.2143 O.3    47  HOH47      -0.4105
    140 H           3.1336   12.3019    2.1523 H       0  HOH0        0.2052
    141 H           4.3764   12.7862    2.8956 H       0  HOH0        0.2052
    142 O           3.0988   12.1508    4.8373 O.3    48  HOH48      -0.4105
    143 H           2.4853   12.2318    4.0916 H       0  HOH0        0.2052
    144 H           3.7994   11.5713    4.5022 H       0  HOH0        0.2052
    145 O           3.8065   13.2584    9.8649 O.3    49  HOH49      -0.4105
    146 H           3.6332   14.1558   10.1864 H       0  HOH0        0.2052
    147 H           2.9482   12.8143    9.9361 H       0  HOH0        0.2052
    148 O           3.3998   13.5291   12.2514 O.3    50  HOH50      -0.4105
    149 H           3.4425   12.8879   12.9767 H       0  HOH0        0.2052
    150 H           4.3094   13.8537   12.1722 H       0  HOH0        0.2052
    151 O           7.3719    0.6149    0.9643 O.3    51  HOH51      -0.4105
    152 H           6.4811    0.3195    1.2053 H       0  HOH0        0.2052
    153 H           7.8544    0.6132    1.8046 H       0  HOH0        0.2052
    154 O           6.0276    1.5708    2.8494 O.3    52  HOH52      -0.4105
    155 H           5.5594    2.2321    3.3808 H       0  HOH0        0.2052
    156 H           6.5347    1.0634    3.5008 H       0  HOH0        0.2052
    157 O           6.1454    0.2335    7.1630 O.3    53  HOH53      -0.4105
    158 H           6.3680    0.9980    6.6108 H       0  HOH0        0.2052
    159 H           5.7841    0.6263    7.9718 H       0  HOH0        0.2052
    160 O           6.7491    0.9629   10.2276 O.3    54  HOH54      -0.4105
    161 H           7.2097    0.4174    9.5725 H       0  HOH0        0.2052
    162 H           5.8776    0.5469   10.3075 H       0  HOH0        0.2052
    163 O           7.4674    0.7822   12.2859 O.3    55  HOH55      -0.4105
    164 H           7.8336    1.6294   11.9905 H       0  HOH0        0.2052
    165 H           6.5189    0.9571   12.3794 H       0  HOH0        0.2052
    166 O           6.7001    3.1353    0.5765 O.3    56  HOH56      -0.4105
    167 H           7.5533    2.7252    0.3695 H       0  HOH0        0.2052
    168 H           6.1725    2.4079    0.9391 H       0  HOH0        0.2052
    169 O           8.0898    2.9879    2.3617 O.3    57  HOH57      -0.4105
    170 H           8.2654    2.2754    2.9946 H       0  HOH0        0.2052
    171 H           7.2647    3.3848    2.6790 H       0  HOH0        0.2052
    172 O           5.5412    3.3104    6.7514 O.3    58  HOH58      -0.4105
    173 H           6.3263    3.6787    7.1838 H       0  HOH0        0.2052
    174 H           5.2769    2.5791    7.3296 H       0  HOH0        0.2052
    175 O           6.5171    2.6573    9.0816 O.3    59  HOH59      -0.4105
    176 H           6.9750    3.3918    9.5172 H       0  HOH0        0.2052
    177 H           7.1991    2.2543    8.5236 H       0  HOH0        0.2052
    178 O           6.4397    3.2231   11.7201 O.3    60  HOH60      -0.4105
    179 H           6.3751    3.2002   12.6866 H       0  HOH0        0.2052
    180 H           7.2635    3.7048   11.5519 H       0  HOH0        0.2052
    181 O           6.8501    8.2943    1.3087 O.3    61  HOH61      -0.4105
    182 H           7.5358    8.9724    1.4037 H       0  HOH0        0.2052
    183 H           6.0348    8.7474    1.5713 H       0  HOH0        0.2052
    184 O           8.0006    8.3199    3.3814 O.3    62  HOH62      -0.4105
    185 H           8.0880    9.0238    4.0416 H       0  HOH0        0.2052
    186 H           7.0744    8.0445    3.4540 H       0  HOH0        0.2052
    187 O           8.1308    6.3276    5.1815 O.3    63  HOH63      -0.4105
    188 H           8.4421    6.4171    4.2683 H       0  HOH0        0.2052
    189 H           7.7291    7.1874    5.3773 H       0  HOH0        0.2052
    190 O           5.4583    6.8592    9.7783 O.3    64  HOH64      -0.4105
    191 H           4.7238    7.2994   10.2317 H       0  HOH0        0.2052
    192 H           5.0356    6.4054    9.0338 H       0  HOH0        0.2052
    193 O           6.6247    8.1310   11.3753 O.3    65  HOH65      -0.4105
    194 H           7.0631    8.0858   10.5123 H       0  HOH0        0.2052
    195 H           6.4887    7.2027   11.6177 H       0  HOH0        0.2052
    196 O           5.7232   10.8746    1.4334 O.3    66  HOH66      -0.4105
    197 H           5.4041   11.0845    0.5428 H       0  HOH0        0.2052
    198 H           6.6850   10.8179    1.3301 H       0  HOH0        0.2052
    199 O           5.5267   10.7968    3.5237 O.3    67  HOH67      -0.4105
    200 H           6.0871   10.0133    3.4186 H       0  HOH0        0.2052
    201 H           6.1493   11.5379    3.4778 H       0  HOH0        0.2052
    202 O           5.6327   10.9777    5.6374 O.3    68  HOH68      -0.4105
    203 H           6.3588   11.6179    5.6788 H       0  HOH0        0.2052
    204 H           6.0739   10.1182    5.7116 H       0  HOH0        0.2052
    205 O           6.4515   10.8992   10.4311 O.3    69  HOH69      -0.4105
    206 H           6.1427   11.1001    9.5348 H       0  HOH0        0.2052
    207 H           5.9915   10.0771   10.6583 H       0  HOH0        0.2052
    208 O           7.8754   10.3724   11.9452 O.3    70  HOH70      -0.4105
    209 H           7.6545    9.7358   12.6415 H       0  HOH0        0.2052
    210 H           8.2657    9.8277   11.2453 H       0  HOH0        0.2052
    211 O           6.8539   12.9741    1.2044 O.3    71  HOH71      -0.4105
    212 H           7.2425   12.7448    2.0619 H       0  HOH0        0.2052
    213 H           5.9025   13.0188    1.3829 H       0  HOH0        0.2052
    214 O           4.6309   12.9624    6.0399 O.3    72  HOH72      -0.4105
    215 H           3.9662   13.6461    6.2122 H       0  HOH0        0.2052
    216 H           4.9894   13.1981    5.1711 H       0  HOH0        0.2052
    217 O           5.6450   12.2151    7.7150 O.3    73  HOH73      -0.4105
    218 H           4.8916   12.6847    8.1034 H       0  HOH0        0.2052
    219 H           6.3055   12.9096    7.5724 H       0  HOH0        0.2052
    220 O           6.0033   13.0003   10.5241 O.3    74  HOH74      -0.4105
    221 H           6.9720   12.9991   10.5047 H       0  HOH0        0.2052
    222 H           5.7707   13.9408   10.5450 H       0  HOH0        0.2052
    223 O           6.4500   12.5611   12.9339 O.3    75  HOH75      -0.4105
    224 H           7.3039   12.3537   12.5255 H       0  HOH0        0.2052
    225 H           6.2618   13.4642   12.6372 H       0  HOH0        0.2052
    226 O           9.4312    1.3801    0.3489 O.3    76  HOH76      -0.4105
    227 H           9.4460    1.8756    1.1815 H       0  HOH0        0.2052
    228 H           9.5995    0.4646    0.6183 H       0  HOH0        0.2052
    229 O          10.6420    1.2086    2.7501 O.3    77  HOH77      -0.4105
    230 H           9.9429    1.0410    3.3998 H       0  HOH0        0.2052
    231 H          10.7892    0.3448    2.3365 H       0  HOH0        0.2052
    232 O          11.0319    2.0569    8.2403 O.3    78  HOH78      -0.4105
    233 H          10.5556    2.8604    7.9825 H       0  HOH0        0.2052
    234 H          10.3281    1.4257    8.4531 H       0  HOH0        0.2052
    235 O           9.7926    0.9452   10.5343 O.3    79  HOH79      -0.4105
    236 H          10.4689    0.2544   10.4678 H       0  HOH0        0.2052
    237 H           8.9677    0.4534   10.6632 H       0  HOH0        0.2052
    238 O           9.7053    1.1652   12.6533 O.3    80  HOH80      -0.4105
    239 H          10.1260    0.2923   12.6452 H       0  HOH0        0.2052
    240 H           9.8848    1.5033   13.5435 H       0  HOH0        0.2052
    241 O          10.3635    4.1754    0.6455 O.3    81  HOH81      -0.4105
    242 H          10.5760    4.9117    0.0525 H       0  HOH0        0.2052
    243 H          10.4205    3.3929    0.0770 H       0  HOH0        0.2052
    244 O          10.0367    3.6981    3.3914 O.3    82  HOH82      -0.4105
    245 H          10.3577    3.0214    4.0062 H       0  HOH0        0.2052
    246 H          10.1956    3.3136    2.5162 H       0  HOH0        0.2052
    247 O          10.4157    4.5517    5.4702 O.3    83  HOH83      -0.4105
    248 H           9.4674    4.6556    5.3008 H       0  HOH0        0.2052
    249 H          10.4924    4.6368    6.4324 H       0  HOH0        0.2052
    250 O           9.0622    2.9547   10.5646 O.3    84  HOH84      -0.4105
    251 H           9.6073    3.7558   10.5778 H       0  HOH0        0.2052
    252 H           9.0477    2.6969    9.6306 H       0  HOH0        0.2052
    253 O           9.0610    4.2816   12.5743 O.3    85  HOH85      -0.4105
    254 H           9.4308    4.6316   13.3987 H       0  HOH0        0.2052
    255 H           9.0848    3.3206   12.6965 H       0  HOH0        0.2052
    256 O           8.9761    7.3626    1.1275 O.3    86  HOH86      -0.4105
    257 H           9.5591    6.6127    0.9358 H       0  HOH0        0.2052
    258 H           9.4986    8.1370    0.8703 H       0  HOH0        0.2052
    259 O          10.1373    7.9520    2.9288 O.3    87  HOH87      -0.4105
    260 H          10.0631    6.9891    3.0081 H       0  HOH0        0.2052
    261 H          10.1644    8.2611    3.8468 H       0  HOH0        0.2052
    262 O          10.1198    6.7662    6.0162 O.3    88  HOH88      -0.4105
    263 H           9.6911    7.6352    6.0178 H       0  HOH0        0.2052
    264 H          10.3928    6.6415    5.0948 H       0  HOH0        0.2052
    265 O           7.4682    5.9138    9.8683 O.3    89  HOH89      -0.4105
    266 H           7.0142    5.4603    9.1423 H       0  HOH0        0.2052
    267 H           8.0234    5.2251   10.2637 H       0  HOH0        0.2052
    268 O           8.6441    6.9903   11.5006 O.3    90  HOH90      -0.4105
    269 H           8.4288    6.2809   12.1247 H       0  HOH0        0.2052
    270 H           8.6266    7.7928   12.0433 H       0  HOH0        0.2052
    271 O           9.7738   10.3868    0.3148 O.3    91  HOH91      -0.4105
    272 H          10.0603   11.0771    0.9315 H       0  HOH0        0.2052
    273 H           8.8185   10.3216    0.4638 H       0  HOH0        0.2052
    274 O           8.9454   10.6893    2.7680 O.3    92  HOH92      -0.4105
    275 H           9.4465   10.8862    3.5737 H       0  HOH0        0.2052
    276 H           9.3252    9.8549    2.4542 H       0  HOH0        0.2052
    277 O          10.8669    9.8509    5.2240 O.3    93  HOH93      -0.4105
    278 H          10.3876    9.6902    6.0507 H       0  HOH0        0.2052
    279 H          10.8858   10.8168    5.1483 H       0  HOH0        0.2052
    280 O          10.0584   10.8093   10.8538 O.3    94  HOH94      -0.4105
    281 H          10.2608   10.4812    9.9648 H       0  HOH0        0.2052
    282 H          10.8587   11.2897   11.1138 H       0  HOH0        0.2052
    283 O           9.8339   10.3342   12.9418 O.3    95  HOH95      -0.4105
    284 H          10.6878   10.7365   13.1608 H       0  HOH0        0.2052
    285 H          10.0718    9.4939   12.5221 H       0  HOH0        0.2052
    286 O           9.2067   13.1629    0.4661 O.3    96  HOH96      -0.4105
    287 H          10.0636   13.0168    0.0379 H       0  HOH0        0.2052
    288 H           8.6438   12.4595    0.1093 H       0  HOH0        0.2052
    289 O          10.3962   12.8791    3.1010 O.3    97  HOH97      -0.4105
    290 H           9.8169   12.6470    2.3598 H       0  HOH0        0.2052
    291 H          10.4648   13.8444    3.0512 H       0  HOH0        0.2052
    292 O          10.7122   11.9311    7.4635 O.3    98  HOH98      -0.4105
    293 H          10.3942   11.1272    7.9013 H       0  HOH0        0.2052
    294 H          10.0638   12.0869    6.7605 H       0  HOH0        0.2052
    295 O          10.0796   13.0365    9.2696 O.3    99  HOH99      -0.4105
    296 H           9.4086   12.3728    9.4892 H       0  HOH0        0.2052
    297 H          10.8803   12.7145    9.7103 H       0  HOH0        0.2052
    298 O           9.3077   12.9159   11.5467 O.3   100  HOH100     -0.4105
    299 H           9.3711   12.2606   12.2577 H       0  HOH0        0.2052
    300 H           9.1993   13.7581   12.0136 H       0  HOH0        0.2052
    301 O          11.7393    1.8835    1.1082 O.3   101  HOH101     -0.4105
    302 H          12.4938    1.4235    1.5058 H       0  HOH0        0.2052
    303 H          11.9059    1.8265    0.1553 H       0  HOH0        0.2052
    304 O          12.6779    1.2474    3.9036 O.3   102  HOH102     -0.4105
    305 H          12.5125    0.3378    3.6133 H       0  HOH0        0.2052
    306 H          11.8838    1.4802    4.4078 H       0  HOH0        0.2052
    307 O          12.0880    0.7479    6.9537 O.3   103  HOH103     -0.4105
    308 H          11.3408    0.9915    6.3869 H       0  HOH0        0.2052
    309 H          12.8647    1.0526    6.4608 H       0  HOH0        0.2052
    310 O          12.2761    0.7427    9.4269 O.3   104  HOH104     -0.4105
    311 H          12.8656    1.3624    8.9713 H       0  HOH0        0.2052
    312 H          12.6145    0.7221   10.3346 H       0  HOH0        0.2052
    313 O          12.0651    1.3940   13.3476 O.3   105  HOH105     -0.4105
    314 H          12.9575    1.5656   13.6838 H       0  HOH0        0.2052
    315 H          12.2133    0.8661   12.5487 H       0  HOH0        0.2052
    316 O          12.4931    3.9214    0.7206 O.3   106  HOH106     -0.4105
    317 H          12.5164    4.7739    1.1807 H       0  HOH0        0.2052
    318 H          13.2742    3.4543    1.0534 H       0  HOH0        0.2052
    319 O          12.2427    3.9278    3.1328 O.3   107  HOH107     -0.4105
    320 H          13.1814    4.1341    3.2554 H       0  HOH0        0.2052
    321 H          12.2408    2.9966    2.8647 H       0  HOH0        0.2052
    322 O          11.7467    3.0263    5.9214 O.3   108  HOH108     -0.4105
    323 H          12.2980    3.0299    6.7182 H       0  HOH0        0.2052
    324 H          12.3192    3.4075    5.2389 H       0  HOH0        0.2052
    325 O          11.2461    2.4364   10.2400 O.3   109  HOH109     -0.4105
    326 H          11.9354    3.0941   10.0636 H       0  HOH0        0.2052
    327 H          11.3470    2.2387   11.1832 H       0  HOH0        0.2052
    328 O          11.2470    3.5279   12.9374 O.3   110  HOH110     -0.4105
    329 H          11.1971    4.0873   12.1477 H       0  HOH0        0.2052
    330 H          12.1827    3.5587   13.1873 H       0  HOH0        0.2052
    331 O          11.7002    6.7586    1.1195 O.3   111  HOH111     -0.4105
    332 H          11.4825    7.6940    1.2479 H       0  HOH0        0.2052
    333 H          11.7844    6.6677    0.1584 H       0  HOH0        0.2052
    334 O          12.1268    6.7290    3.5072 O.3   112  HOH112     -0.4105
    335 H          12.3013    7.6162    3.1586 H       0  HOH0        0.2052
    336 H          12.5890    6.1406    2.8916 H       0  HOH0        0.2052
    337 O          12.2429    5.8488    5.9390 O.3   113  HOH113     -0.4105
    338 H          12.4247    6.7854    5.7696 H       0  HOH0        0.2052
    339 H          12.3151    5.4347    5.0660 H       0  HOH0        0.2052
    340 O          10.5595    6.0621   12.1920 O.3   114  HOH114     -0.4105
    341 H          10.4284    5.8071   11.2664 H       0  HOH0        0.2052
    342 H          10.7287    7.0153   12.1505 H       0  HOH0        0.2052
    343 O          12.3676    6.4138   13.3476 O.3   115  HOH115     -0.4105
    344 H          13.1572    6.9751   13.3680 H       0  HOH0        0.2052
    345 H          12.6323    5.6572   12.8031 H       0  HOH0        0.2052
    346 O          12.2159   10.4726    0.6613 O.3   116  HOH116     -0.4105
    347 H          11.8822   10.7470   -0.2061 H       0  HOH0        0.2052
    348 H          11.7172    9.6658    0.8594 H       0  HOH0        0.2052
    349 O          11.6932   10.5828    3.2502 O.3   117  HOH117     -0.4105
    350 H          11.5578    9.6627    2.9782 H       0  HOH0        0.2052
    351 H          11.3694   11.0996    2.4972 H       0  HOH0        0.2052
    352 O          12.6290   10.4162    6.3989 O.3   118  HOH118     -0.4105
    353 H          12.1956   10.0578    7.1881 H       0  HOH0        0.2052
    354 H          12.5168   11.3748    6.4852 H       0  HOH0        0.2052
    355 O          12.1754   11.0314    9.1020 O.3   119  HOH119     -0.4105
    356 H          12.5367   11.7575    8.5717 H       0  HOH0        0.2052
    357 H          12.5522   11.1749    9.9831 H       0  HOH0        0.2052
    358 O          12.6530   11.4873   12.1503 O.3   120  HOH120     -0.4105
    359 H          12.7500   10.5235   12.1766 H       0  HOH0        0.2052
    360 H          12.7062   11.7534   13.0805 H       0  HOH0        0.2052
    361 O          11.8013   12.8822    1.4078 O.3   121  HOH121     -0.4105
    362 H          11.8116   13.8494    1.3504 H       0  HOH0        0.2052
    363 H          12.4978   12.6038    0.7942 H       0  HOH0        0.2052
    364 O          12.6720   13.5202    3.3718 O.3   122  HOH122     -0.4105
    365 H          12.7057   12.5529    3.4179 H       0  HOH0        0.2052
    366 H          13.4941   13.8038    3.7991 H       0  HOH0        0.2052
    367 O          11.6730   13.2896    5.8911 O.3   123  HOH123     -0.4105
    368 H          12.6112   13.4775    5.7379 H       0  HOH0        0.2052
    369 H          11.3765   12.8864    5.0613 H       0  HOH0        0.2052
    370 O          12.7396   13.1340   10.7449 O.3   124  HOH124     -0.4105
    371 H          13.1492   13.3367    9.8905 H       0  HOH0        0.2052
    372 H          13.4357   13.3288   11.3902 H       0  HOH0        0.2052
    373 O          11.1283   13.4800   13.2157 O.3   125  HOH125     -0.4105
    374 H          11.6367   14.2941   13.3488 H       0  HOH0        0.2052
    375 H          11.3088   13.2392   12.2947 H       0  HOH0        0.2052
@<TRIPOS>BOND
     1     1     2    1
     2     1     3    1
     3     4     5    1
     4     4     6    1
     5     7     8    1
     6     7     9    1
     7    10    11    1
     8    10    12    1
     9    13    14    1
    10    13    15    1
    11    16    17    1
    12    16    18    1
    13    19    20    1
    14    19    21    1
    15    22    23    1
    16    22    24    1
    17    25    26    1
    18    25    27    1
    19    28    29    1
    20    28    30    1
    21    31    32    1
    22    31    33    1
    23    34    35    1
    24    34    36    1
    25    37    38    1
    26    37    39    1
    27    40    41    1
    28    40    42    1
    29    43    44    1
    30    43    45    1
    31    46    47    1
    32    46    48    1
    33    49    50    1
    34    49    51    1
    35    52    53    1
    36    52    54    1
    37    55    56    1
    38    55    57    1
    39    58    59    1
    40    58    60    1
    41    61    62    1
    42    61    63    1
    43    64    65    1
    44    64    66    1
    45    67    68    1
    46    67    69    1
    47    70    71    1
    48    70    72    1
    49    73    74    1
    50    73    75    1
    51    76    77    1
    52    76    78    1
    53    79    80    1
    54    79    81    1
    55    82    83    1
    56    82    84    1
    57    85    86    1
    58    85    87    1
    59    88    89    1
    60    88    90    1
    61    91    92    1
    62    91    93    1
    63    94    95    1
    64    94    96    1
    65    97    98    1
    66    97    99    1
    67   100   101    1
    68   100   102    1
    69   103   104    1
    70   103   105    1
    71   106   107    1
    72   106   108    1
    73   109   110    1
    74   109   111    1
    75   112   113    1
    76   112   114    1
    77   115   116    1
    78   115   117    1
    79   118   119    1
    80   118   120    1
    81   121   122    1
    82   121   123    1
    83   124   125    1
    84   124   126    1
    85   127   128    1
    86   127   129    1
    87   130   131    1
    88   130   132    1
    89   133   134    1
    90   133   135    1
    91   136   137    1
    92   136   138    1
    93   139   140    1
    94   139   141    1
    95   142   143    1
    96   142   144    1
    97   145   146    1
    98   145   147    1
    99   148   149    1
   100   148   150    1
   101   151   152    1
   102   151   153    1
   103   154   155    1
   104   154   156    1
   105   157   158    1
   106   157   159    1
   107   160   161    1
   108   160   162    1
   109   163   164    1
   110   163   165    1
   111   166   167    1
   112   166   168    1
   113   169   170    1
   114   169   171    1
   115   172   173    1
   116   172   174    1
   117   175   176    1
   118   175   177    1
   119   178   179    1
   120   178   180    1
   121   181   182    1
   122   181   183    1
   123   184   185    1
   124   184   186    1
   125   187   188    1
   126   187   189    1
   127   190   191    1
   128   190   192    1
   129   193   194    1
   130   193   195    1
   131   196   197    1
   132   196   198    1
   133   199   200    1
   134   199   201    1
   135   202   203    1
   136   202   204    1
   137   205   206    1
   138   205   207    1
   139   208   209    1
   140   208   210    1
   141   211   212    1
   142   211   213    1
   143   214   215    1
   144   214   216    1
   145   217   218    1
   146   217   219    1
   147   220   221    1
   148   220   222    1
   149   223   224    1
   150   223   225    1
   151   226   227    1
   152   226   228    1
   153   229   230    1
   154   229   231    1
   155   232   233    1
   156   232   234    1
   157   235   236    1
   158   235   237    1
   159   238   239    1
   160   238   240    1
   161   241   242    1
   162   241   243    1
   163   244   245    1
   164   244   246    1
   165   247   248    1
   166   247   249    1
   167   250   251    1
   168   250   252    1
   169   253   254    1
   170   253   255    1
   171   256   257    1
   172   256   258    1
   173   259   260    1
   174   259   261    1
   175   262   263    1
   176   262   264    1
   177   265   266    1
   178   265   267    1
   179   268   269    1
   180   268   270    1
   181   271   272    1
   182   271   273    1
   183   274   275    1
   184   274   276    1
   185   277   278    1
   186   277   279    1
   187   280   281    1
   188   280   282    1
   189   283   284    1
   190   283   285    1
   191   286   287    1
   192   286   288    1
   193   289   290    1
   194   289   291    1
   195   292   293    1
   196   292   294    1
   197   295   296    1
   198   295   297    1
   199   298   299    1
   200   298   300    1
   201   301   302    1
   202   301   303    1
   203   304   305    1
   204   304   306    1
   205   307   308    1
   206   307   309    1
   207   310   311    1
   208   310   312    1
   209   313   314    1
   210   313   315    1
   211   316   317    1
   212   316   318    1
   213   319   320    1
   214   319   321    1
   215   322   323    1
   216   322   324    1
   217   325   326    1
   218   325   327    1
   219   328   329    1
   220   328   330    1
   221   331   332    1
   222   331   333    1
   223   334   335    1
   224   334   336    1
   225   337   338    1
   226   337   339    1
   227   340   341    1
   228   340   342    1
   229   343   344    1
   230   343   345    1
   231   346   347    1
   232   346   348    1
   233   349   350    1
   234   349   351    1
   235   352   353    1
   236   352   354    1
   237   355   356    1
   238   355   357    1
   239   358   359    1
   240   358   360    1
   241   361   362    1
   242   361   363    1
   243   364   365    1
   244   364   366    1
   245   367   368    1
   246   367   369    1
   247   370   371    1
   248   370   372    1
   249   373   374    1
   250   373   375    1
