@<TRIPOS>MOLECULE
*****
 375 250 0 0 0
SMALL
GASTEIGER

@<TRIPOS>ATOM
      1 O           1.7661    1.8525    1.9371 O.3     1  HOH1       -0.4105
      2 H           1.5467    2.7615    2.1911 H       0  HOH0        0.2052
      3 H           1.4801    1.7921    1.0133 H       0  HOH0        0.2052
      4 O           2.0686    1.5727    4.7960 O.3     2  HOH2       -0.4105
      5 H           1.7281    1.2163    3.9617 H       0  HOH0        0.2052
      6 H           2.7125    0.9102    5.0881 H       0  HOH0        0.2052
      7 O           1.4885    1.2784    7.8873 O.3     3  HOH3       -0.4105
      8 H           0.9589    2.0678    8.0757 H       0  HOH0        0.2052
      9 H           1.5668    1.2740    6.9215 H       0  HOH0        0.2052
     10 O           0.7160    0.5855    9.8103 O.3     4  HOH4       -0.4105
     11 H           1.1383   -0.0531   10.4043 H       0  HOH0        0.2052
     12 H           0.9290    1.4458   10.2019 H       0  HOH0        0.2052
     13 O           1.7065    0.9003   12.2609 O.3     5  HOH5       -0.4105
     14 H           1.9988    1.7956   12.0331 H       0  HOH0        0.2052
     15 H           0.7446    0.9821   12.3441 H       0  HOH0        0.2052
     16 O           2.3987    3.8936    0.7020 O.3     6  HOH6       -0.4105
     17 H           2.8162    4.7453    0.5038 H       0  HOH0        0.2052
     18 H           2.5265    3.3763   -0.1074 H       0  HOH0        0.2052
     19 O           2.0433    4.3359    4.1238 O.3     7  HOH7       -0.4105
     20 H           2.7470    4.2856    4.7881 H       0  HOH0        0.2052
     21 H           1.6064    3.4728    4.1798 H       0  HOH0        0.2052
     22 O           1.5286    4.1980    6.5810 O.3     8  HOH8       -0.4105
     23 H           1.3535    3.2993    6.2638 H       0  HOH0        0.2052
     24 H           1.7498    4.0771    7.5166 H       0  HOH0        0.2052
     25 O           2.4926    3.0097   10.3206 O.3     9  HOH9       -0.4105
     26 H           2.4477    3.0380    9.3531 H       0  HOH0        0.2052
     27 H           2.9040    3.8536   10.5606 H       0  HOH0        0.2052
     28 O           1.9750    4.1221   12.4539 O.3    10  HOH10      -0.4105
     29 H           1.9926    3.5375   13.2265 H       0  HOH0        0.2052
     30 H           1.2031    3.8220   11.9509 H       0  HOH0        0.2052
     31 O           1.3021    6.7993    1.2931 O.3    11  HOH11      -0.4105
     32 H           1.4034    7.7524    1.1511 H       0  HOH0        0.2052
     33 H           1.3815    6.4204    0.4048 H       0  HOH0        0.2052
     34 O           1.2966    8.0401    3.3567 O.3    12  HOH12      -0.4105
     35 H           1.6371    8.3595    4.2058 H       0  HOH0        0.2052
     36 H           1.4380    7.0822    3.3932 H       0  HOH0        0.2052
     37 O           2.8906    9.1339    7.7613 O.3    13  HOH13      -0.4105
     38 H           2.1028    9.1298    7.1971 H       0  HOH0        0.2052
     39 H           3.1963    8.2146    7.7433 H       0  HOH0        0.2052
     40 O           2.1682    7.7526    9.6255 O.3    14  HOH14      -0.4105
     41 H           2.7904    8.4546    9.8682 H       0  HOH0        0.2052
     42 H           2.7380    6.9996    9.4079 H       0  HOH0        0.2052
     43 O           1.6192    6.0847   11.3440 O.3    15  HOH15      -0.4105
     44 H           1.6299    7.0302   11.5561 H       0  HOH0        0.2052
     45 H           2.5518    5.8676   11.1956 H       0  HOH0        0.2052
     46 O           1.0469   10.8256    0.8861 O.3    16  HOH16      -0.4105
     47 H           1.4209   10.0226    1.2789 H       0  HOH0        0.2052
     48 H           1.4364   11.5441    1.4066 H       0  HOH0        0.2052
     49 O           0.5585   10.2593    3.2532 O.3    17  HOH17      -0.4105
     50 H           0.3027    9.9472    4.1342 H       0  HOH0        0.2052
     51 H           0.7779   11.1931    3.3903 H       0  HOH0        0.2052
     52 O           0.7347   11.0713    6.1939 O.3    18  HOH18      -0.4105
     53 H           1.2600   11.1422    7.0050 H       0  HOH0        0.2052
     54 H           1.3777   11.2211    5.4847 H       0  HOH0        0.2052
     55 O           1.5165   11.1511    9.7145 O.3    19  HOH19      -0.4105
     56 H           2.1971   10.6559   10.1946 H       0  HOH0        0.2052
     57 H           0.7135   11.0143   10.2393 H       0  HOH0        0.2052
     58 O           1.9978    9.1830   11.8174 O.3    20  HOH20      -0.4105
     59 H           1.9061   10.0532   12.2337 H       0  HOH0        0.2052
     60 H           1.2062    9.1035   11.2642 H       0  HOH0        0.2052
     61 O           0.9752   13.4486    0.5403 O.3    21  HOH21      -0.4105
     62 H           1.4594   14.2637    0.7406 H       0  HOH0        0.2052
     63 H           1.5238   13.0083   -0.1262 H       0  HOH0        0.2052
     64 O           1.3460   13.8071    3.5266 O.3    22  HOH22      -0.4105
     65 H           0.8249   13.2506    4.1247 H       0  HOH0        0.2052
     66 H           1.4221   13.2763    2.7195 H       0  HOH0        0.2052
     67 O           2.8599   12.5545    7.0749 O.3    23  HOH23      -0.4105
     68 H           2.5183   12.7976    7.9485 H       0  HOH0        0.2052
     69 H           2.2771   13.0214    6.4575 H       0  HOH0        0.2052
     70 O           1.4446   14.0838    9.6145 O.3    24  HOH24      -0.4105
     71 H           1.5860   14.3167   10.5444 H       0  HOH0        0.2052
     72 H           0.9473   13.2531    9.6542 H       0  HOH0        0.2052
     73 O           0.9992   12.7077   11.7742 O.3    25  HOH25      -0.4105
     74 H           1.7955   12.1591   11.7121 H       0  HOH0        0.2052
     75 H           1.2325   13.3859   12.4258 H       0  HOH0        0.2052
     76 O           3.7231    2.1851    1.1983 O.3    26  HOH26      -0.4105
     77 H           3.6412    1.5313    0.4878 H       0  HOH0        0.2052
     78 H           4.4887    1.8813    1.7089 H       0  HOH0        0.2052
     79 O           3.5466    0.0939    3.3698 O.3    27  HOH27      -0.4105
     80 H           3.2386    0.4244    2.5126 H       0  HOH0        0.2052
     81 H           4.3490    0.6083    3.5445 H       0  HOH0        0.2052
     82 O           4.2911    0.8474    6.6046 O.3    28  HOH28      -0.4105
     83 H           4.5206    0.0929    6.0417 H       0  HOH0        0.2052
     84 H           3.6658    0.4789    7.2466 H       0  HOH0        0.2052
     85 O           2.9445    0.9598    9.4384 O.3    29  HOH29      -0.4105
     86 H           3.0999    1.0241   10.3927 H       0  HOH0        0.2052
     87 H           2.9717    0.0077    9.2605 H       0  HOH0        0.2052
     88 O           3.7678    0.3728   12.3786 O.3    30  HOH30      -0.4105
     89 H           4.5754    0.5906   11.8893 H       0  HOH0        0.2052
     90 H           3.8014    0.9515   13.1551 H       0  HOH0        0.2052
     91 O           5.1021    4.4881    1.5241 O.3    31  HOH31      -0.4105
     92 H           4.7721    3.9462    0.7917 H       0  HOH0        0.2052
     93 H           5.5980    3.8624    2.0732 H       0  HOH0        0.2052
     94 O           3.8769    3.3388    3.2891 O.3    32  HOH32      -0.4105
     95 H           3.3965    3.7819    2.5737 H       0  HOH0        0.2052
     96 H           3.3992    2.5045    3.4102 H       0  HOH0        0.2052
     97 O           3.4746    3.1816    6.6606 O.3    33  HOH33      -0.4105
     98 H           3.6197    2.6451    5.8669 H       0  HOH0        0.2052
     99 H           3.2057    2.5374    7.3326 H       0  HOH0        0.2052
    100 O           4.5957    2.7666    9.9137 O.3    34  HOH34      -0.4105
    101 H           4.9555    2.1204   10.5398 H       0  HOH0        0.2052
    102 H           4.4876    2.2625    9.0932 H       0  HOH0        0.2052
    103 O           4.4280    3.5552   12.0240 O.3    35  HOH35      -0.4105
    104 H           4.1096    4.2695   12.5963 H       0  HOH0        0.2052
    105 H           3.8313    2.8167   12.2174 H       0  HOH0        0.2052
    106 O           3.8256    6.2026    1.9354 O.3    36  HOH36      -0.4105
    107 H           3.0032    5.9188    2.3621 H       0  HOH0        0.2052
    108 H           3.5283    6.6557    1.1321 H       0  HOH0        0.2052
    109 O           3.4712    8.0811    3.1805 O.3    37  HOH37      -0.4105
    110 H           4.4326    8.1541    3.0842 H       0  HOH0        0.2052
    111 H           3.1321    8.2674    2.2921 H       0  HOH0        0.2052
    112 O           4.4150    8.7015    5.1681 O.3    38  HOH38      -0.4105
    113 H           3.4829    8.5930    5.4098 H       0  HOH0        0.2052
    114 H           4.4362    9.5437    4.6893 H       0  HOH0        0.2052
    115 O           4.0502    4.2059    8.3420 O.3    39  HOH39      -0.4105
    116 H           4.9588    4.3999    8.6169 H       0  HOH0        0.2052
    117 H           3.5173    4.8635    8.8138 H       0  HOH0        0.2052
    118 O           5.3853    4.7855   10.5893 O.3    40  HOH40      -0.4105
    119 H           5.9320    5.3337   11.1720 H       0  HOH0        0.2052
    120 H           4.4898    5.1352   10.7112 H       0  HOH0        0.2052
    121 O           3.2024   11.4764    0.1879 O.3    41  HOH41      -0.4105
    122 H           3.3969   10.6503    0.6555 H       0  HOH0        0.2052
    123 H           2.6371   11.2007   -0.5492 H       0  HOH0        0.2052
    124 O           2.8316   10.3042    2.8408 O.3    42  HOH42      -0.4105
    125 H           2.6810   10.0617    3.7668 H       0  HOH0        0.2052
    126 H           3.7925   10.2375    2.7347 H       0  HOH0        0.2052
    127 O           4.0707   10.8448    6.5645 O.3    43  HOH43      -0.4105
    128 H           4.4409   10.0087    6.8852 H       0  HOH0        0.2052
    129 H           3.2219   10.5900    6.1726 H       0  HOH0        0.2052
    130 O           4.0679   10.9921    9.1681 O.3    44  HOH44      -0.4105
    131 H           3.3620   10.9740    8.5045 H       0  HOH0        0.2052
    132 H           4.1349   10.0718    9.4638 H       0  HOH0        0.2052
    133 O           4.2773   11.6175   11.1740 O.3    45  HOH45      -0.4105
    134 H           3.7298   10.9933   11.6736 H       0  HOH0        0.2052
    135 H           5.0068   11.8241   11.7774 H       0  HOH0        0.2052
    136 O           3.7612   13.5294    0.6094 O.3    46  HOH46      -0.4105
    137 H           3.5134   14.1950    1.2686 H       0  HOH0        0.2052
    138 H           3.4632   13.9097   -0.2306 H       0  HOH0        0.2052
    139 O           4.2058   12.2820    2.3139 O.3    47  HOH47      -0.4105
    140 H           3.2584   12.2497    2.1134 H       0  HOH0        0.2052
    141 H           4.2870   13.0137    2.9439 H       0  HOH0        0.2052
    142 O           3.3195   12.1601    4.7794 O.3    48  HOH48      -0.4105
    143 H           2.6376   12.1350    4.0914 H       0  HOH0        0.2052
    144 H           3.9993   11.5490    4.4576 H       0  HOH0        0.2052
    145 O           3.8280   13.1628    9.8612 O.3    49  HOH49      -0.4105
    146 H           3.6576   14.0996   10.0410 H       0  HOH0        0.2052
    147 H           2.9893   12.7271   10.0752 H       0  HOH0        0.2052
    148 O           3.4622   13.4127   12.1406 O.3    50  HOH50      -0.4105
    149 H           3.4858   12.8527   12.9310 H       0  HOH0        0.2052
    150 H           4.3355   13.8322   12.1247 H       0  HOH0        0.2052
    151 O           7.8142    0.8321    1.4169 O.3    51  HOH51      -0.4105
    152 H           6.9704    0.3557    1.4213 H       0  HOH0        0.2052
    153 H           8.3018    0.4512    2.1626 H       0  HOH0        0.2052
    154 O           6.0967    1.9381    2.9960 O.3    52  HOH52      -0.4105
    155 H           5.7491    2.4266    3.7573 H       0  HOH0        0.2052
    156 H           6.4728    1.1345    3.3855 H       0  HOH0        0.2052
    157 O           6.2067    0.2122    7.4789 O.3    53  HOH53      -0.4105
    158 H           6.5466    0.8870    6.8723 H       0  HOH0        0.2052
    159 H           5.7331    0.7213    8.1538 H       0  HOH0        0.2052
    160 O           6.8243    0.8945   10.1970 O.3    54  HOH54      -0.4105
    161 H           7.3870    0.4278    9.5609 H       0  HOH0        0.2052
    162 H           6.0228    0.3518   10.2426 H       0  HOH0        0.2052
    163 O           7.6031    0.8150   12.3109 O.3    55  HOH55      -0.4105
    164 H           7.9427    1.6029   11.8605 H       0  HOH0        0.2052
    165 H           6.6482    0.9701   12.3659 H       0  HOH0        0.2052
    166 O           6.8253    3.0895    0.4904 O.3    56  HOH56      -0.4105
    167 H           7.7022    2.7535    0.2515 H       0  HOH0        0.2052
    168 H           6.3534    2.3059    0.8101 H       0  HOH0        0.2052
    169 O           8.0088    2.7325    2.3324 O.3    57  HOH57      -0.4105
    170 H           8.2376    2.3791    3.2052 H       0  HOH0        0.2052
    171 H           7.8375    3.6718    2.4977 H       0  HOH0        0.2052
    172 O           5.6520    3.4438    6.7066 O.3    58  HOH58      -0.4105
    173 H           6.4045    3.8253    7.1831 H       0  HOH0        0.2052
    174 H           5.4064    2.6710    7.2370 H       0  HOH0        0.2052
    175 O           6.5756    2.6435    9.1193 O.3    59  HOH59      -0.4105
    176 H           6.8985    3.5454    9.2654 H       0  HOH0        0.2052
    177 H           7.2100    2.2666    8.4913 H       0  HOH0        0.2052
    178 O           6.4547    3.0614   11.6299 O.3    60  HOH60      -0.4105
    179 H           6.5061    3.2026   12.5872 H       0  HOH0        0.2052
    180 H           7.1177    3.6681   11.2678 H       0  HOH0        0.2052
    181 O           6.6629    8.4472    1.6808 O.3    61  HOH61      -0.4105
    182 H           7.3781    9.1011    1.6817 H       0  HOH0        0.2052
    183 H           5.8593    8.9791    1.7817 H       0  HOH0        0.2052
    184 O           7.9650    8.4191    3.6048 O.3    62  HOH62      -0.4105
    185 H           8.1471    9.0486    4.3186 H       0  HOH0        0.2052
    186 H           7.0488    8.1455    3.7622 H       0  HOH0        0.2052
    187 O           8.0475    6.2914    5.0806 O.3    63  HOH63      -0.4105
    188 H           8.3580    6.3785    4.1668 H       0  HOH0        0.2052
    189 H           8.0547    7.1997    5.4179 H       0  HOH0        0.2052
    190 O           5.3537    6.9481    9.8188 O.3    64  HOH64      -0.4105
    191 H           4.6173    7.2326   10.3808 H       0  HOH0        0.2052
    192 H           4.9214    6.5077    9.0717 H       0  HOH0        0.2052
    193 O           6.5821    8.2127   11.3986 O.3    65  HOH65      -0.4105
    194 H           6.9402    8.1008   10.5052 H       0  HOH0        0.2052
    195 H           6.3661    7.3106   11.6789 H       0  HOH0        0.2052
    196 O           5.4958   11.0201    1.2352 O.3    66  HOH66      -0.4105
    197 H           5.3827   11.7342    0.5901 H       0  HOH0        0.2052
    198 H           6.4557   10.9623    1.3545 H       0  HOH0        0.2052
    199 O           5.7215   10.6057    3.3733 O.3    67  HOH67      -0.4105
    200 H           6.6136   10.2303    3.4184 H       0  HOH0        0.2052
    201 H           5.8585   11.5534    3.5220 H       0  HOH0        0.2052
    202 O           5.9106   10.8716    5.5258 O.3    68  HOH68      -0.4105
    203 H           6.6516   11.4912    5.6030 H       0  HOH0        0.2052
    204 H           6.3325    9.9993    5.5395 H       0  HOH0        0.2052
    205 O           6.4412   10.9301   10.4444 O.3    69  HOH69      -0.4105
    206 H           6.1842   11.1162    9.5288 H       0  HOH0        0.2052
    207 H           5.9776   10.1056   10.6547 H       0  HOH0        0.2052
    208 O           8.1371   10.3450   11.3599 O.3    70  HOH70      -0.4105
    209 H           7.7625    9.8968   12.1330 H       0  HOH0        0.2052
    210 H           8.4521    9.6203   10.7990 H       0  HOH0        0.2052
    211 O           7.2547   12.8613    1.8500 O.3    71  HOH71      -0.4105
    212 H           7.5574   12.4025    2.6480 H       0  HOH0        0.2052
    213 H           6.3259   13.0659    2.0357 H       0  HOH0        0.2052
    214 O           4.9061   12.9006    5.9290 O.3    72  HOH72      -0.4105
    215 H           4.3257   13.6607    6.0852 H       0  HOH0        0.2052
    216 H           5.3371   13.1046    5.0855 H       0  HOH0        0.2052
    217 O           5.3621   11.9584    7.7639 O.3    73  HOH73      -0.4105
    218 H           4.7905   12.6853    8.0534 H       0  HOH0        0.2052
    219 H           6.2394   12.3639    7.6946 H       0  HOH0        0.2052
    220 O           5.9949   13.0793   10.3655 O.3    74  HOH74      -0.4105
    221 H           6.9625   13.0395   10.3993 H       0  HOH0        0.2052
    222 H           5.7932   14.0129   10.5287 H       0  HOH0        0.2052
    223 O           6.6981   12.4827   12.9679 O.3    75  HOH75      -0.4105
    224 H           7.0697   11.9491   12.2496 H       0  HOH0        0.2052
    225 H           6.4580   13.3178   12.5391 H       0  HOH0        0.2052
    226 O           9.5725    1.5782    0.2331 O.3    76  HOH76      -0.4105
    227 H           9.5357    1.9835    1.1124 H       0  HOH0        0.2052
    228 H           9.8950    0.6803    0.4025 H       0  HOH0        0.2052
    229 O          10.5148    1.1426    2.7060 O.3    77  HOH77      -0.4105
    230 H           9.8948    1.0408    3.4437 H       0  HOH0        0.2052
    231 H          10.6059    0.2455    2.3512 H       0  HOH0        0.2052
    232 O          10.6381    2.4336    8.0863 O.3    78  HOH78      -0.4105
    233 H           9.9996    3.1542    8.1960 H       0  HOH0        0.2052
    234 H          10.1738    1.6551    8.4287 H       0  HOH0        0.2052
    235 O           9.3461    0.6759   10.5078 O.3    79  HOH79      -0.4105
    236 H          10.2838    0.4325   10.5288 H       0  HOH0        0.2052
    237 H           8.8911   -0.1181   10.8264 H       0  HOH0        0.2052
    238 O           9.9010    1.5959   12.5658 O.3    80  HOH80      -0.4105
    239 H           9.8345    0.6312   12.6269 H       0  HOH0        0.2052
    240 H           9.7145    1.9009   13.4664 H       0  HOH0        0.2052
    241 O          10.2076    3.9082    0.5458 O.3    81  HOH81      -0.4105
    242 H          10.3747    4.8590    0.4631 H       0  HOH0        0.2052
    243 H          10.5738    3.5343   -0.2697 H       0  HOH0        0.2052
    244 O           9.9548    3.7215    3.4241 O.3    82  HOH82      -0.4105
    245 H          10.2096    3.0087    4.0291 H       0  HOH0        0.2052
    246 H          10.1462    3.3619    2.5449 H       0  HOH0        0.2052
    247 O          10.1833    4.4091    5.6145 O.3    83  HOH83      -0.4105
    248 H           9.2695    4.5191    5.3112 H       0  HOH0        0.2052
    249 H          10.1509    4.6583    6.5503 H       0  HOH0        0.2052
    250 O           9.0067    2.9636   10.7311 O.3    84  HOH84      -0.4105
    251 H           9.3660    3.8343   10.5034 H       0  HOH0        0.2052
    252 H           8.8295    2.5515    9.8723 H       0  HOH0        0.2052
    253 O           8.7593    4.4377   12.4570 O.3    85  HOH85      -0.4105
    254 H           9.1230    4.8983   13.2281 H       0  HOH0        0.2052
    255 H           8.6849    3.5165   12.7482 H       0  HOH0        0.2052
    256 O           8.7747    7.4984    1.2572 O.3    86  HOH86      -0.4105
    257 H           9.3184    6.7732    0.9146 H       0  HOH0        0.2052
    258 H           9.2164    8.2966    0.9306 H       0  HOH0        0.2052
    259 O          10.0990    7.9226    2.8870 O.3    87  HOH87      -0.4105
    260 H          10.0536    6.9571    2.9555 H       0  HOH0        0.2052
    261 H          10.1818    8.2188    3.8059 H       0  HOH0        0.2052
    262 O          10.1076    6.7325    5.8960 O.3    88  HOH88      -0.4105
    263 H          10.0824    7.7005    5.8604 H       0  HOH0        0.2052
    264 H          10.2908    6.4693    4.9816 H       0  HOH0        0.2052
    265 O           7.3865    6.0453    9.9060 O.3    89  HOH89      -0.4105
    266 H           6.9371    5.6239    9.1581 H       0  HOH0        0.2052
    267 H           7.9406    5.3404   10.2736 H       0  HOH0        0.2052
    268 O           8.5125    7.1750   11.5286 O.3    90  HOH90      -0.4105
    269 H           8.2679    6.4501   12.1233 H       0  HOH0        0.2052
    270 H           8.6951    7.9161   12.1256 H       0  HOH0        0.2052
    271 O           9.2912   10.7067    0.3185 O.3    91  HOH91      -0.4105
    272 H           9.7075   11.2609    0.9956 H       0  HOH0        0.2052
    273 H           8.3669   10.6443    0.6027 H       0  HOH0        0.2052
    274 O           8.6114   10.5050    2.6785 O.3    92  HOH92      -0.4105
    275 H           8.9333   10.9817    3.4583 H       0  HOH0        0.2052
    276 H           9.2847    9.8251    2.5254 H       0  HOH0        0.2052
    277 O           9.9943    9.9112    5.1193 O.3    93  HOH93      -0.4105
    278 H           9.5104    9.8647    5.9575 H       0  HOH0        0.2052
    279 H          10.2024   10.8525    5.0211 H       0  HOH0        0.2052
    280 O          10.1365   10.9499   10.9092 O.3    94  HOH94      -0.4105
    281 H          10.3585   10.5337   10.0627 H       0  HOH0        0.2052
    282 H          10.9544   11.3989   11.1708 H       0  HOH0        0.2052
    283 O           9.8164   10.2759   12.8608 O.3    95  HOH95      -0.4105
    284 H          10.6163   10.7447   13.1423 H       0  HOH0        0.2052
    285 H          10.1537    9.5101   12.3722 H       0  HOH0        0.2052
    286 O           8.8786   13.1683    0.4921 O.3    96  HOH96      -0.4105
    287 H           9.7047   13.1789   -0.0142 H       0  HOH0        0.2052
    288 H           8.2690   12.6612   -0.0650 H       0  HOH0        0.2052
    289 O          10.1879   12.8650    3.2094 O.3    97  HOH97      -0.4105
    290 H           9.6090   12.8056    2.4346 H       0  HOH0        0.2052
    291 H          10.3747   13.8124    3.2900 H       0  HOH0        0.2052
    292 O          10.5389   11.9461    7.5251 O.3    98  HOH98      -0.4105
    293 H          10.1542   11.1481    7.9177 H       0  HOH0        0.2052
    294 H           9.9955   12.1053    6.7387 H       0  HOH0        0.2052
    295 O          10.0470   13.1108    9.3342 O.3    99  HOH99      -0.4105
    296 H           9.3930   12.4071    9.4611 H       0  HOH0        0.2052
    297 H          10.8793   12.7131    9.6308 H       0  HOH0        0.2052
    298 O           8.9966   12.6106   11.5425 O.3   100  HOH100     -0.4105
    299 H           9.2169   12.3348   12.4449 H       0  HOH0        0.2052
    300 H           9.2088   13.5560   11.5283 H       0  HOH0        0.2052
    301 O          11.6636    1.9447    1.2438 O.3   101  HOH101     -0.4105
    302 H          12.4112    1.4696    1.6367 H       0  HOH0        0.2052
    303 H          11.7989    1.8458    0.2894 H       0  HOH0        0.2052
    304 O          12.5536    1.1284    3.9316 O.3   102  HOH102     -0.4105
    305 H          12.4163    0.2386    3.5735 H       0  HOH0        0.2052
    306 H          11.7287    1.3214    4.4020 H       0  HOH0        0.2052
    307 O          11.8513    1.0598    6.9974 O.3   103  HOH103     -0.4105
    308 H          11.0667    1.0279    6.4297 H       0  HOH0        0.2052
    309 H          12.5879    1.1474    6.3738 H       0  HOH0        0.2052
    310 O          12.0663    0.9175    9.1627 O.3   104  HOH104     -0.4105
    311 H          12.5195    1.7462    8.9462 H       0  HOH0        0.2052
    312 H          12.4108    0.6839   10.0377 H       0  HOH0        0.2052
    313 O          11.8095    1.2908   13.3476 O.3   105  HOH105     -0.4105
    314 H          12.6518    1.6321   13.6838 H       0  HOH0        0.2052
    315 H          12.0573    0.8017   12.5487 H       0  HOH0        0.2052
    316 O          12.4357    3.8764    0.8294 O.3   106  HOH106     -0.4105
    317 H          12.2472    4.6458    1.3875 H       0  HOH0        0.2052
    318 H          13.2422    3.5008    1.2133 H       0  HOH0        0.2052
    319 O          12.1574    3.9245    3.3329 O.3   107  HOH107     -0.4105
    320 H          13.0990    4.1443    3.3960 H       0  HOH0        0.2052
    321 H          12.1519    2.9897    3.0776 H       0  HOH0        0.2052
    322 O          11.7952    2.9660    5.6541 O.3   108  HOH108     -0.4105
    323 H          11.8397    3.3784    6.5299 H       0  HOH0        0.2052
    324 H          12.6868    3.0850    5.2938 H       0  HOH0        0.2052
    325 O          10.9902    2.3980   10.3511 O.3   109  HOH109     -0.4105
    326 H          11.3291    3.2459   10.0268 H       0  HOH0        0.2052
    327 H          11.4918    2.2413   11.1652 H       0  HOH0        0.2052
    328 O          10.8325    3.5469   12.7835 O.3   110  HOH110     -0.4105
    329 H          10.8547    4.1242   12.0055 H       0  HOH0        0.2052
    330 H          11.7574    3.5030   13.0689 H       0  HOH0        0.2052
    331 O          11.4118    6.6657    1.1918 O.3   111  HOH111     -0.4105
    332 H          11.4502    7.6321    1.2509 H       0  HOH0        0.2052
    333 H          11.8644    6.4639    0.3591 H       0  HOH0        0.2052
    334 O          12.1063    6.7385    3.4736 O.3   112  HOH112     -0.4105
    335 H          12.3164    7.6484    3.2150 H       0  HOH0        0.2052
    336 H          12.6338    6.1954    2.8689 H       0  HOH0        0.2052
    337 O          12.0713    5.5219    5.9206 O.3   113  HOH113     -0.4105
    338 H          12.3265    6.4467    5.7847 H       0  HOH0        0.2052
    339 H          12.0228    5.1582    5.0238 H       0  HOH0        0.2052
    340 O          10.3810    6.1127   11.7124 O.3   114  HOH114     -0.4105
    341 H          10.1559    5.8389   10.8106 H       0  HOH0        0.2052
    342 H          10.7470    7.0031   11.6022 H       0  HOH0        0.2052
    343 O          11.6018    5.5986   13.3212 O.3   115  HOH115     -0.4105
    344 H          11.5172    6.5284   13.5804 H       0  HOH0        0.2052
    345 H          12.2673    5.6114   12.6171 H       0  HOH0        0.2052
    346 O          11.5576   10.3274    0.6963 O.3   116  HOH116     -0.4105
    347 H          11.4257   10.5485   -0.2378 H       0  HOH0        0.2052
    348 H          10.9755    9.5664    0.8412 H       0  HOH0        0.2052
    349 O          11.3864   10.3299    3.3600 O.3   117  HOH117     -0.4105
    350 H          11.5982    9.5697    2.7977 H       0  HOH0        0.2052
    351 H          11.0723   11.0019    2.7366 H       0  HOH0        0.2052
    352 O          11.8595   10.2518    6.0981 O.3   118  HOH118     -0.4105
    353 H          11.5617    9.9385    6.9653 H       0  HOH0        0.2052
    354 H          12.0777   11.1839    6.2482 H       0  HOH0        0.2052
    355 O          12.1044   11.0264    8.9079 O.3   119  HOH119     -0.4105
    356 H          12.4911   11.7576    8.4033 H       0  HOH0        0.2052
    357 H          12.4860   11.1252    9.7932 H       0  HOH0        0.2052
    358 O          12.9281   11.2647   11.9782 O.3   120  HOH120     -0.4105
    359 H          12.5501   10.3896   12.1524 H       0  HOH0        0.2052
    360 H          12.6310   11.8016   12.7282 H       0  HOH0        0.2052
    361 O          11.4024   12.5680    1.2700 O.3   121  HOH121     -0.4105
    362 H          11.3597   13.5324    1.3531 H       0  HOH0        0.2052
    363 H          12.1181   12.4192    0.6340 H       0  HOH0        0.2052
    364 O          12.4647   13.0176    3.1045 O.3   122  HOH122     -0.4105
    365 H          12.7423   12.1768    3.4982 H       0  HOH0        0.2052
    366 H          13.2089   13.6138    3.2769 H       0  HOH0        0.2052
    367 O          11.6053   13.2424    5.6990 O.3   123  HOH123     -0.4105
    368 H          12.5408   13.3465    5.4692 H       0  HOH0        0.2052
    369 H          11.2429   12.7143    4.9718 H       0  HOH0        0.2052
    370 O          12.7731   13.0366   10.7511 O.3   124  HOH124     -0.4105
    371 H          13.1377   13.2627    9.8823 H       0  HOH0        0.2052
    372 H          13.4137   13.4060   11.3773 H       0  HOH0        0.2052
    373 O          11.0165   13.4800   13.0766 O.3   125  HOH125     -0.4105
    374 H          11.5317   14.2941   13.1801 H       0  HOH0        0.2052
    375 H          11.1436   13.2392   12.1467 H       0  HOH0        0.2052
@<TRIPOS>BOND
     1     1     2    1
     2     1     3    1
     3     4     5    1
     4     4     6    1
     5     7     8    1
     6     7     9    1
     7    10    11    1
     8    10    12    1
     9    13    14    1
    10    13    15    1
    11    16    17    1
    12    16    18    1
    13    19    20    1
    14    19    21    1
    15    22    23    1
    16    22    24    1
    17    25    26    1
    18    25    27    1
    19    28    29    1
    20    28    30    1
    21    31    32    1
    22    31    33    1
    23    34    35    1
    24    34    36    1
    25    37    38    1
    26    37    39    1
    27    40    41    1
    28    40    42    1
    29    43    44    1
    30    43    45    1
    31    46    47    1
    32    46    48    1
    33    49    50    1
    34    49    51    1
    35    52    53    1
    36    52    54    1
    37    55    56    1
    38    55    57    1
    39    58    59    1
    40    58    60    1
    41    61    62    1
    42    61    63    1
    43    64    65    1
    44    64    66    1
    45    67    68    1
    46    67    69    1
    47    70    71    1
    48    70    72    1
    49    73    74    1
    50    73    75    1
    51    76    77    1
    52    76    78    1
    53    79    80    1
    54    79    81    1
    55    82    83    1
    56    82    84    1
    57    85    86    1
    58    85    87    1
    59    88    89    1
    60    88    90    1
    61    91    92    1
    62    91    93    1
    63    94    95    1
    64    94    96    1
    65    97    98    1
    66    97    99    1
    67   100   101    1
    68   100   102    1
    69   103   104    1
    70   103   105    1
    71   106   107    1
    72   106   108    1
    73   109   110    1
    74   109   111    1
    75   112   113    1
    76   112   114    1
    77   115   116    1
    78   115   117    1
    79   118   119    1
    80   118   120    1
    81   121   122    1
    82   121   123    1
    83   124   125    1
    84   124   126    1
    85   127   128    1
    86   127   129    1
    87   130   131    1
    88   130   132    1
    89   133   134    1
    90   133   135    1
    91   136   137    1
    92   136   138    1
    93   139   140    1
    94   139   141    1
    95   142   143    1
    96   142   144    1
    97   145   146    1
    98   145   147    1
    99   148   149    1
   100   148   150    1
   101   151   152    1
   102   151   153    1
   103   154   155    1
   104   154   156    1
   105   157   158    1
   106   157   159    1
   107   160   161    1
   108   160   162    1
   109   163   164    1
   110   163   165    1
   111   166   167    1
   112   166   168    1
   113   169   170    1
   114   169   171    1
   115   172   173    1
   116   172   174    1
   117   175   176    1
   118   175   177    1
   119   178   179    1
   120   178   180    1
   121   181   182    1
   122   181   183    1
   123   184   185    1
   124   184   186    1
   125   187   188    1
   126   187   189    1
   127   190   191    1
   128   190   192    1
   129   193   194    1
   130   193   195    1
   131   196   197    1
   132   196   198    1
   133   199   200    1
   134   199   201    1
   135   202   203    1
   136   202   204    1
   137   205   206    1
   138   205   207    1
   139   208   209    1
   140   208   210    1
   141   211   212    1
   142   211   213    1
   143   214   215    1
   144   214   216    1
   145   217   218    1
   146   217   219    1
   147   220   221    1
   148   220   222    1
   149   223   224    1
   150   223   225    1
   151   226   227    1
   152   226   228    1
   153   229   230    1
   154   229   231    1
   155   232   233    1
   156   232   234    1
   157   235   236    1
   158   235   237    1
   159   238   239    1
   160   238   240    1
   161   241   242    1
   162   241   243    1
   163   244   245    1
   164   244   246    1
   165   247   248    1
   166   247   249    1
   167   250   251    1
   168   250   252    1
   169   253   254    1
   170   253   255    1
   171   256   257    1
   172   256   258    1
   173   259   260    1
   174   259   261    1
   175   262   263    1
   176   262   264    1
   177   265   266    1
   178   265   267    1
   179   268   269    1
   180   268   270    1
   181   271   272    1
   182   271   273    1
   183   274   275    1
   184   274   276    1
   185   277   278    1
   186   277   279    1
   187   280   281    1
   188   280   282    1
   189   283   284    1
   190   283   285    1
   191   286   287    1
   192   286   288    1
   193   289   290    1
   194   289   291    1
   195   292   293    1
   196   292   294    1
   197   295   296    1
   198   295   297    1
   199   298   299    1
   200   298   300    1
   201   301   302    1
   202   301   303    1
   203   304   305    1
   204   304   306    1
   205   307   308    1
   206   307   309    1
   207   310   311    1
   208   310   312    1
   209   313   314    1
   210   313   315    1
   211   316   317    1
   212   316   318    1
   213   319   320    1
   214   319   321    1
   215   322   323    1
   216   322   324    1
   217   325   326    1
   218   325   327    1
   219   328   329    1
   220   328   330    1
   221   331   332    1
   222   331   333    1
   223   334   335    1
   224   334   336    1
   225   337   338    1
   226   337   339    1
   227   340   341    1
   228   340   342    1
   229   343   344    1
   230   343   345    1
   231   346   347    1
   232   346   348    1
   233   349   350    1
   234   349   351    1
   235   352   353    1
   236   352   354    1
   237   355   356    1
   238   355   357    1
   239   358   359    1
   240   358   360    1
   241   361   362    1
   242   361   363    1
   243   364   365    1
   244   364   366    1
   245   367   368    1
   246   367   369    1
   247   370   371    1
   248   370   372    1
   249   373   374    1
   250   373   375    1
