@<TRIPOS>MOLECULE
*****
 96 84 0 0 0
SMALL
GASTEIGER

@<TRIPOS>ATOM
      1 CL          5.0427    1.7501    2.6595 Cl      1  UNL1       -0.1242
      2 CL          1.7500    1.7500    2.3845 Cl      1  UNL1       -0.1242
      3 C           4.0799    3.1722    2.1910 C.3     1  UNL1        0.0360
      4 C           2.7126    3.1722    2.8530 C.3     1  UNL1        0.0360
      5 H           3.9920    3.1704    1.1000 H       1  UNL1        0.0441
      6 H           4.6436    4.0618    2.4866 H       1  UNL1        0.0441
      7 H           2.1488    4.0618    2.5574 H       1  UNL1        0.0441
      8 H           2.8005    3.1705    3.9439 H       1  UNL1        0.0441
      9 CL          5.0427    1.7501    7.7034 Cl      2  UNL2       -0.1242
     10 CL          1.7500    1.7500    7.4284 Cl      2  UNL2       -0.1242
     11 C           4.0799    3.1722    7.2349 C.3     2  UNL2        0.0360
     12 C           2.7126    3.1722    7.8969 C.3     2  UNL2        0.0360
     13 H           3.9920    3.1704    6.1439 H       2  UNL2        0.0441
     14 H           4.6436    4.0618    7.5305 H       2  UNL2        0.0441
     15 H           2.1488    4.0618    7.6013 H       2  UNL2        0.0441
     16 H           2.8005    3.1705    8.9878 H       2  UNL2        0.0441
     17 CL          5.0427    1.7501   12.7473 Cl      3  UNL3       -0.1242
     18 CL          1.7500    1.7500   12.4723 Cl      3  UNL3       -0.1242
     19 C           4.0799    3.1722   12.2788 C.3     3  UNL3        0.0360
     20 C           2.7126    3.1722   12.9408 C.3     3  UNL3        0.0360
     21 H           3.9920    3.1704   11.1878 H       3  UNL3        0.0441
     22 H           4.6436    4.0618   12.5744 H       3  UNL3        0.0441
     23 H           2.1488    4.0618   12.6452 H       3  UNL3        0.0441
     24 H           2.8005    3.1705   14.0317 H       3  UNL3        0.0441
     25 CL          5.0427    6.9119    2.6595 Cl      4  UNL4       -0.1242
     26 CL          1.7500    6.9118    2.3845 Cl      4  UNL4       -0.1242
     27 C           4.0799    8.3340    2.1910 C.3     4  UNL4        0.0360
     28 C           2.7126    8.3340    2.8530 C.3     4  UNL4        0.0360
     29 H           3.9920    8.3322    1.1000 H       4  UNL4        0.0441
     30 H           4.6436    9.2236    2.4866 H       4  UNL4        0.0441
     31 H           2.1488    9.2236    2.5574 H       4  UNL4        0.0441
     32 H           2.8005    8.3323    3.9439 H       4  UNL4        0.0441
     33 CL          5.0427    6.9119    7.7034 Cl      5  UNL5       -0.1242
     34 CL          1.7500    6.9118    7.4284 Cl      5  UNL5       -0.1242
     35 C           4.0799    8.3340    7.2349 C.3     5  UNL5        0.0360
     36 C           2.7126    8.3340    7.8969 C.3     5  UNL5        0.0360
     37 H           3.9920    8.3322    6.1439 H       5  UNL5        0.0441
     38 H           4.6436    9.2236    7.5305 H       5  UNL5        0.0441
     39 H           2.1488    9.2236    7.6013 H       5  UNL5        0.0441
     40 H           2.8005    8.3323    8.9878 H       5  UNL5        0.0441
     41 CL          5.0427    6.9119   12.7473 Cl      6  UNL6       -0.1242
     42 CL          1.7500    6.9118   12.4723 Cl      6  UNL6       -0.1242
     43 C           4.0799    8.3340   12.2788 C.3     6  UNL6        0.0360
     44 C           2.7126    8.3340   12.9408 C.3     6  UNL6        0.0360
     45 H           3.9920    8.3322   11.1878 H       6  UNL6        0.0441
     46 H           4.6436    9.2236   12.5744 H       6  UNL6        0.0441
     47 H           2.1488    9.2236   12.6452 H       6  UNL6        0.0441
     48 H           2.8005    8.3323   14.0317 H       6  UNL6        0.0441
     49 CL         11.8354    1.7501    2.6595 Cl      7  UNL7       -0.1242
     50 CL          8.5427    1.7500    2.3845 Cl      7  UNL7       -0.1242
     51 C          10.8726    3.1722    2.1910 C.3     7  UNL7        0.0360
     52 C           9.5053    3.1722    2.8530 C.3     7  UNL7        0.0360
     53 H          10.7847    3.1704    1.1000 H       7  UNL7        0.0441
     54 H          11.4363    4.0618    2.4866 H       7  UNL7        0.0441
     55 H           8.9415    4.0618    2.5574 H       7  UNL7        0.0441
     56 H           9.5932    3.1705    3.9439 H       7  UNL7        0.0441
     57 CL         11.8354    1.7501    7.7034 Cl      8  UNL8       -0.1242
     58 CL          8.5427    1.7500    7.4284 Cl      8  UNL8       -0.1242
     59 C          10.8726    3.1722    7.2349 C.3     8  UNL8        0.0360
     60 C           9.5053    3.1722    7.8969 C.3     8  UNL8        0.0360
     61 H          10.7847    3.1704    6.1439 H       8  UNL8        0.0441
     62 H          11.4363    4.0618    7.5305 H       8  UNL8        0.0441
     63 H           8.9415    4.0618    7.6013 H       8  UNL8        0.0441
     64 H           9.5932    3.1705    8.9878 H       8  UNL8        0.0441
     65 CL         11.8354    1.7501   12.7473 Cl      9  UNL9       -0.1242
     66 CL          8.5427    1.7500   12.4723 Cl      9  UNL9       -0.1242
     67 C          10.8726    3.1722   12.2788 C.3     9  UNL9        0.0360
     68 C           9.5053    3.1722   12.9408 C.3     9  UNL9        0.0360
     69 H          10.7847    3.1704   11.1878 H       9  UNL9        0.0441
     70 H          11.4363    4.0618   12.5744 H       9  UNL9        0.0441
     71 H           8.9415    4.0618   12.6452 H       9  UNL9        0.0441
     72 H           9.5932    3.1705   14.0317 H       9  UNL9        0.0441
     73 CL         11.8354    6.9119    2.6595 Cl     10  UNL10      -0.1242
     74 CL          8.5427    6.9118    2.3845 Cl     10  UNL10      -0.1242
     75 C          10.8726    8.3340    2.1910 C.3    10  UNL10       0.0360
     76 C           9.5053    8.3340    2.8530 C.3    10  UNL10       0.0360
     77 H          10.7847    8.3322    1.1000 H      10  UNL10       0.0441
     78 H          11.4363    9.2236    2.4866 H      10  UNL10       0.0441
     79 H           8.9415    9.2236    2.5574 H      10  UNL10       0.0441
     80 H           9.5932    8.3323    3.9439 H      10  UNL10       0.0441
     81 CL         11.8354    6.9119    7.7034 Cl     11  UNL11      -0.1242
     82 CL          8.5427    6.9118    7.4284 Cl     11  UNL11      -0.1242
     83 C          10.8726    8.3340    7.2349 C.3    11  UNL11       0.0360
     84 C           9.5053    8.3340    7.8969 C.3    11  UNL11       0.0360
     85 H          10.7847    8.3322    6.1439 H      11  UNL11       0.0441
     86 H          11.4363    9.2236    7.5305 H      11  UNL11       0.0441
     87 H           8.9415    9.2236    7.6013 H      11  UNL11       0.0441
     88 H           9.5932    8.3323    8.9878 H      11  UNL11       0.0441
     89 CL         11.8354    6.9119   12.7473 Cl     12  UNL12      -0.1242
     90 CL          8.5427    6.9118   12.4723 Cl     12  UNL12      -0.1242
     91 C          10.8726    8.3340   12.2788 C.3    12  UNL12       0.0360
     92 C           9.5053    8.3340   12.9408 C.3    12  UNL12       0.0360
     93 H          10.7847    8.3322   11.1878 H      12  UNL12       0.0441
     94 H          11.4363    9.2236   12.5744 H      12  UNL12       0.0441
     95 H           8.9415    9.2236   12.6452 H      12  UNL12       0.0441
     96 H           9.5932    8.3323   14.0317 H      12  UNL12       0.0441
@<TRIPOS>BOND
     1     1     3    1
     2     2     4    1
     3     3     4    1
     4     3     5    1
     5     3     6    1
     6     4     7    1
     7     4     8    1
     8     9    11    1
     9    10    12    1
    10    11    12    1
    11    11    13    1
    12    11    14    1
    13    12    15    1
    14    12    16    1
    15    17    19    1
    16    18    20    1
    17    19    20    1
    18    19    21    1
    19    19    22    1
    20    20    23    1
    21    20    24    1
    22    25    27    1
    23    26    28    1
    24    27    28    1
    25    27    29    1
    26    27    30    1
    27    28    31    1
    28    28    32    1
    29    33    35    1
    30    34    36    1
    31    35    36    1
    32    35    37    1
    33    35    38    1
    34    36    39    1
    35    36    40    1
    36    41    43    1
    37    42    44    1
    38    43    44    1
    39    43    45    1
    40    43    46    1
    41    44    47    1
    42    44    48    1
    43    49    51    1
    44    50    52    1
    45    51    52    1
    46    51    53    1
    47    51    54    1
    48    52    55    1
    49    52    56    1
    50    57    59    1
    51    58    60    1
    52    59    60    1
    53    59    61    1
    54    59    62    1
    55    60    63    1
    56    60    64    1
    57    65    67    1
    58    66    68    1
    59    67    68    1
    60    67    69    1
    61    67    70    1
    62    68    71    1
    63    68    72    1
    64    73    75    1
    65    74    76    1
    66    75    76    1
    67    75    77    1
    68    75    78    1
    69    76    79    1
    70    76    80    1
    71    81    83    1
    72    82    84    1
    73    83    84    1
    74    83    85    1
    75    83    86    1
    76    84    87    1
    77    84    88    1
    78    89    91    1
    79    90    92    1
    80    91    92    1
    81    91    93    1
    82    91    94    1
    83    92    95    1
    84    92    96    1
