@<TRIPOS>MOLECULE
*****
 36 24 0 0 0
SMALL
GASTEIGER

@<TRIPOS>ATOM
      1 O          -0.8563   -0.4442    0.4814 O.3     1  HOH1       -0.4105
      2 H          -1.3925   -0.9413    1.1173 H       0  HOH0        0.2052
      3 H          -1.4681    0.2182    0.1267 H       0  HOH0        0.2052
      4 O           1.0010    0.7934    3.2369 O.3     2  HOH2       -0.4105
      5 H           1.6221    1.3556    2.7501 H       0  HOH0        0.2052
      6 H           0.3562    0.5218    2.5665 H       0  HOH0        0.2052
      7 O          -0.0412    2.6506    0.5579 O.3     3  HOH3       -0.4105
      8 H          -0.0546    3.0149   -0.3399 H       0  HOH0        0.2052
      9 H           0.4253    1.8068    0.4612 H       0  HOH0        0.2052
     10 O           0.5294    3.7608    3.5621 O.3     4  HOH4       -0.4105
     11 H           1.0129    4.4664    4.0172 H       0  HOH0        0.2052
     12 H           0.2721    3.1562    4.2743 H       0  HOH0        0.2052
     13 O           2.4483   -0.0431    0.1052 O.3     5  HOH5       -0.4105
     14 H           2.6021    0.8887    0.3223 H       0  HOH0        0.2052
     15 H           2.1797   -0.4386    0.9481 H       0  HOH0        0.2052
     16 O           2.1198    4.5488    0.1567 O.3     6  HOH6       -0.4105
     17 H           2.4247    3.6571    0.3821 H       0  HOH0        0.2052
     18 H           1.8342    4.9199    1.0050 H       0  HOH0        0.2052
     19 O           3.3370    3.8311    3.0983 O.3     7  HOH7       -0.4105
     20 H           3.8761    4.1764    2.3709 H       0  HOH0        0.2052
     21 H           3.8351    3.0624    3.4143 H       0  HOH0        0.2052
     22 O           2.4715    2.0679    5.7400 O.3     8  HOH8       -0.4105
     23 H           2.9319    1.5573    5.0572 H       0  HOH0        0.2052
     24 H           2.7636    2.9792    5.5878 H       0  HOH0        0.2052
     25 O           5.7658    0.3202   -0.2701 O.3     9  HOH9       -0.4105
     26 H           5.1389    0.8581   -0.7766 H       0  HOH0        0.2052
     27 H           5.2425   -0.4446    0.0132 H       0  HOH0        0.2052
     28 O           4.7721    0.7869    2.7069 O.3    10  HOH10      -0.4105
     29 H           4.5653    0.4932    3.6069 H       0  HOH0        0.2052
     30 H           3.9254    0.7241    2.2398 H       0  HOH0        0.2052
     31 O           5.1336    3.5686    0.0267 O.3    11  HOH11      -0.4105
     32 H           5.0025    2.9053    0.7208 H       0  HOH0        0.2052
     33 H           6.0966    3.6588   -0.0320 H       0  HOH0        0.2052
     34 O           5.7066    2.8291    5.5307 O.3    12  HOH12      -0.4105
     35 H           5.1347    3.5484    5.2235 H       0  HOH0        0.2052
     36 H           5.3024    2.0323    5.1556 H       0  HOH0        0.2052
@<TRIPOS>BOND
     1     1     2    1
     2     1     3    1
     3     4     5    1
     4     4     6    1
     5     7     8    1
     6     7     9    1
     7    10    11    1
     8    10    12    1
     9    13    14    1
    10    13    15    1
    11    16    17    1
    12    16    18    1
    13    19    20    1
    14    19    21    1
    15    22    23    1
    16    22    24    1
    17    25    26    1
    18    25    27    1
    19    28    29    1
    20    28    30    1
    21    31    32    1
    22    31    33    1
    23    34    35    1
    24    34    36    1
