@<TRIPOS>MOLECULE
*****
 267 178 0 0 0
SMALL
GASTEIGER

@<TRIPOS>ATOM
      1 O          -1.1387    3.8111   -4.3154 O.3     1  HOH1       -0.4105
      2 H          -0.6676    4.6578   -4.3134 H       0  HOH0        0.2052
      3 H          -1.2938    3.6273   -3.3767 H       0  HOH0        0.2052
      4 O           0.7298   -4.0192   -3.4539 O.3     2  HOH2       -0.4105
      5 H           1.3824   -3.6845   -2.8207 H       0  HOH0        0.2052
      6 H           1.1489   -3.8819   -4.3167 H       0  HOH0        0.2052
      7 O          -0.7898   -4.0197    6.3096 O.3     3  HOH3       -0.4105
      8 H          -1.7585   -4.0070    6.3303 H       0  HOH0        0.2052
      9 H          -0.5422   -3.0843    6.3606 H       0  HOH0        0.2052
     10 O          -0.5185   -0.5163   -1.9659 O.3     4  HOH4       -0.4105
     11 H          -0.3215   -0.5029   -1.0173 H       0  HOH0        0.2052
     12 H           0.1402    0.0814   -2.3503 H       0  HOH0        0.2052
     13 O          -1.6815   -1.1860    3.4528 O.3     5  HOH5       -0.4105
     14 H          -1.5262   -1.7558    2.6846 H       0  HOH0        0.2052
     15 H          -0.7909   -0.9667    3.7654 H       0  HOH0        0.2052
     16 O           0.0092    1.3305   -4.3160 O.3     6  HOH6       -0.4105
     17 H           0.4750    0.4852   -4.2300 H       0  HOH0        0.2052
     18 H          -0.1762    1.5897   -3.4009 H       0  HOH0        0.2052
     19 O          -0.9648    2.6716   -1.6441 O.3     7  HOH7       -0.4105
     20 H          -0.0968    2.9321   -1.9869 H       0  HOH0        0.2052
     21 H          -0.9566    1.7041   -1.6966 H       0  HOH0        0.2052
     22 O          -1.1631    2.1389    0.6231 O.3     8  HOH8       -0.4105
     23 H          -0.7472    2.6141    1.3580 H       0  HOH0        0.2052
     24 H          -0.4770    1.5234    0.3241 H       0  HOH0        0.2052
     25 O          -0.8176    0.6921    2.5013 O.3     9  HOH9       -0.4105
     26 H          -0.2484    1.4521    2.6945 H       0  HOH0        0.2052
     27 H          -0.2432    0.0893    2.0058 H       0  HOH0        0.2052
     28 O          -1.0745    0.6052    5.2366 O.3    10  HOH10      -0.4105
     29 H          -0.8130    1.4355    4.8110 H       0  HOH0        0.2052
     30 H          -1.0857    0.8198    6.1814 H       0  HOH0        0.2052
     31 O           0.0593    4.8602   -2.1826 O.3    11  HOH11      -0.4105
     32 H           0.6177    5.1905   -1.4628 H       0  HOH0        0.2052
     33 H           0.5685    5.0572   -2.9831 H       0  HOH0        0.2052
     34 O           0.2129    3.9492    0.2666 O.3    12  HOH12      -0.4105
     35 H           0.2134    4.9147    0.1836 H       0  HOH0        0.2052
     36 H           1.1473    3.7244    0.3901 H       0  HOH0        0.2052
     37 O          -1.2351    4.4506    3.9156 O.3    13  HOH13      -0.4105
     38 H          -0.6556    5.1342    4.2841 H       0  HOH0        0.2052
     39 H          -0.7544    3.6247    4.0762 H       0  HOH0        0.2052
     40 O          -0.3293    7.2190   -4.3159 O.3    14  HOH14      -0.4105
     41 H          -0.0918    6.3837   -3.8860 H       0  HOH0        0.2052
     42 H          -1.2982    7.2194   -4.3075 H       0  HOH0        0.2052
     43 O          -0.3566    7.2193    3.0006 O.3    15  HOH15      -0.4105
     44 H           0.4587    7.2006    2.4773 H       0  HOH0        0.2052
     45 H          -0.1104    6.7890    3.8331 H       0  HOH0        0.2052
     46 O           0.4949   -1.7399   -4.2897 O.3    16  HOH16      -0.4105
     47 H          -0.2525   -2.3561   -4.3157 H       0  HOH0        0.2052
     48 H           0.6027   -1.5423   -3.3473 H       0  HOH0        0.2052
     49 O           0.3650   -2.6984   -1.2783 O.3    17  HOH17      -0.4105
     50 H           0.1367   -3.6398   -1.2996 H       0  HOH0        0.2052
     51 H           1.3337   -2.6927   -1.2557 H       0  HOH0        0.2052
     52 O           1.5256   -4.0191    0.4888 O.3    18  HOH18      -0.4105
     53 H           0.9578   -3.3217    0.8494 H       0  HOH0        0.2052
     54 H           2.2992   -4.0163    1.0724 H       0  HOH0        0.2052
     55 O           0.0247   -2.7678    4.4790 O.3    19  HOH19      -0.4105
     56 H           0.1457   -3.7289    4.4541 H       0  HOH0        0.2052
     57 H           0.9267   -2.4170    4.4326 H       0  HOH0        0.2052
     58 O           1.6277   -3.7795    6.3436 O.3    20  HOH20      -0.4105
     59 H           1.8976   -2.8490    6.3604 H       0  HOH0        0.2052
     60 H           1.6734   -4.0196    5.4059 H       0  HOH0        0.2052
     61 O           2.2310   -0.5196   -2.6357 O.3    21  HOH21      -0.4105
     62 H           2.2737   -1.4755   -2.4828 H       0  HOH0        0.2052
     63 H           2.0123   -0.4426   -3.5765 H       0  HOH0        0.2052
     64 O           1.2652   -0.7245    0.1317 O.3    22  HOH22      -0.4105
     65 H           1.2068   -1.6842    0.2526 H       0  HOH0        0.2052
     66 H           1.5254   -0.6209   -0.7960 H       0  HOH0        0.2052
     67 O          -1.2293   -4.0194    1.0915 O.3    23  HOH23      -0.4105
     68 H          -0.6860   -4.0117    0.2892 H       0  HOH0        0.2052
     69 H          -0.6438   -3.6585    1.7741 H       0  HOH0        0.2052
     70 O           1.8258   -4.0192    3.2212 O.3    24  HOH24      -0.4105
     71 H           2.1540   -3.1092    3.1657 H       0  HOH0        0.2052
     72 H           1.0196   -4.0105    2.6838 H       0  HOH0        0.2052
     73 O           0.9138   -0.7490    6.3594 O.3    25  HOH25      -0.4105
     74 H           1.2212   -1.0071    5.4775 H       0  HOH0        0.2052
     75 H          -0.0242   -0.9922    6.3609 H       0  HOH0        0.2052
     76 O           2.6167    1.5124   -4.3159 O.3    26  HOH26      -0.4105
     77 H           3.4117    2.0665   -4.3138 H       0  HOH0        0.2052
     78 H           2.3401    1.4964   -3.3874 H       0  HOH0        0.2052
     79 O           1.1521    1.3529   -0.9055 O.3    27  HOH27      -0.4105
     80 H           1.1738    2.1469   -0.3505 H       0  HOH0        0.2052
     81 H           1.1853    1.6986   -1.8101 H       0  HOH0        0.2052
     82 O           1.7069    1.0322    1.7766 O.3    28  HOH28      -0.4105
     83 H           1.1074    1.7605    1.5548 H       0  HOH0        0.2052
     84 H           2.1616    0.8411    0.9425 H       0  HOH0        0.2052
     85 O           1.0328    0.6946    4.0971 O.3    29  HOH29      -0.4105
     86 H           1.1551   -0.2371    3.8606 H       0  HOH0        0.2052
     87 H           1.7510    0.8737    4.7224 H       0  HOH0        0.2052
     88 O           0.5583    2.2256    6.3521 O.3    30  HOH30      -0.4105
     89 H           0.5792    2.5315    5.4329 H       0  HOH0        0.2052
     90 H           1.1607    1.4666    6.3600 H       0  HOH0        0.2052
     91 O           1.3556    3.3328   -4.3156 O.3    31  HOH31      -0.4105
     92 H           1.3039    4.3004   -4.3154 H       0  HOH0        0.2052
     93 H           0.7990    3.0685   -3.5678 H       0  HOH0        0.2052
     94 O           2.2767    3.8408   -1.2750 O.3    32  HOH32      -0.4105
     95 H           2.0860    4.6731   -0.8168 H       0  HOH0        0.2052
     96 H           3.0566    3.4943   -0.8160 H       0  HOH0        0.2052
     97 O           0.1246    5.1207    2.3276 O.3    33  HOH33      -0.4105
     98 H          -0.5189    5.5875    1.7736 H       0  HOH0        0.2052
     99 H           0.9757    5.3021    1.9013 H       0  HOH0        0.2052
    100 O           1.3797    3.2485    2.9214 O.3    34  HOH34      -0.4105
    101 H           0.6753    2.9786    3.5295 H       0  HOH0        0.2052
    102 H           1.6964    4.0878    3.2879 H       0  HOH0        0.2052
    103 O          -1.1944    5.3170    6.3595 O.3    35  HOH35      -0.4105
    104 H          -0.3528    4.8640    6.1999 H       0  HOH0        0.2052
    105 H          -0.9592    6.2570    6.3533 H       0  HOH0        0.2052
    106 O          -0.3068    7.0657   -1.5527 O.3    36  HOH36      -0.4105
    107 H           0.3381    7.2200   -2.2593 H       0  HOH0        0.2052
    108 H           0.2161    6.6654   -0.8419 H       0  HOH0        0.2052
    109 O           1.6034    7.2194    0.6334 O.3    37  HOH37      -0.4105
    110 H           1.9081    6.6014    1.3147 H       0  HOH0        0.2052
    111 H           0.6384    7.2064    0.7203 H       0  HOH0        0.2052
    112 O           1.9323    7.2203    4.2257 O.3    38  HOH38      -0.4105
    113 H           2.1668    6.3141    4.4764 H       0  HOH0        0.2052
    114 H           1.9668    7.2116    3.2573 H       0  HOH0        0.2052
    115 O           1.0033    7.0121    6.3596 O.3    39  HOH39      -0.4105
    116 H           0.3227    7.2199    5.7019 H       0  HOH0        0.2052
    117 H           1.1363    6.0570    6.2651 H       0  HOH0        0.2052
    118 O           3.1894   -4.0190   -3.7064 O.3    40  HOH40      -0.4105
    119 H           3.3547   -3.4830   -2.9163 H       0  HOH0        0.2052
    120 H           3.8968   -3.7613   -4.3164 H       0  HOH0        0.2052
    121 O           3.7344   -4.0184   -0.7834 O.3    41  HOH41      -0.4105
    122 H           2.8622   -4.0106   -1.2055 H       0  HOH0        0.2052
    123 H           4.0962   -3.1406   -0.9775 H       0  HOH0        0.2052
    124 O           3.2026   -2.0381    0.8814 O.3    42  HOH42      -0.4105
    125 H           2.9012   -2.2988    1.7646 H       0  HOH0        0.2052
    126 H           4.0499   -2.4968    0.7783 H       0  HOH0        0.2052
    127 O           4.0054   -3.9990    2.5815 O.3    43  HOH43      -0.4105
    128 H           4.4776   -4.0197    1.7356 H       0  HOH0        0.2052
    129 H           4.1493   -3.0981    2.9080 H       0  HOH0        0.2052
    130 O           3.9539   -3.6151    6.3600 O.3    44  HOH44      -0.4105
    131 H           3.8503   -4.0187    5.4852 H       0  HOH0        0.2052
    132 H           3.9316   -2.6628    6.1827 H       0  HOH0        0.2052
    133 O           3.6069   -1.4787   -4.3162 O.3    45  HOH45      -0.4105
    134 H           4.0984   -1.8486   -3.5676 H       0  HOH0        0.2052
    135 H           2.7649   -1.9581   -4.3033 H       0  HOH0        0.2052
    136 O           3.6348   -0.6414   -0.8174 O.3    46  HOH46      -0.4105
    137 H           4.4858   -0.2812   -0.5257 H       0  HOH0        0.2052
    138 H           3.8789   -1.3804   -1.3947 H       0  HOH0        0.2052
    139 O           0.5756   -1.8713    2.3953 O.3    47  HOH47      -0.4105
    140 H           1.1587   -1.0995    2.3379 H       0  HOH0        0.2052
    141 H          -0.0006   -1.7874    1.6207 H       0  HOH0        0.2052
    142 O           2.9948   -0.9641    3.8313 O.3    48  HOH48      -0.4105
    143 H           3.2120   -1.8846    4.0420 H       0  HOH0        0.2052
    144 H           2.8161   -0.9777    2.8791 H       0  HOH0        0.2052
    145 O           3.5464   -0.0884    6.3612 O.3    49  HOH49      -0.4105
    146 H           4.0131    0.7587    6.3013 H       0  HOH0        0.2052
    147 H           3.0630   -0.1490    5.5236 H       0  HOH0        0.2052
    148 O           4.6827    0.2009   -2.7588 O.3    50  HOH50      -0.4105
    149 H           5.4062    0.7218   -2.3791 H       0  HOH0        0.2052
    150 H           4.4652    0.6663   -3.5804 H       0  HOH0        0.2052
    151 O           3.3094    1.7194   -1.5784 O.3    51  HOH51      -0.4105
    152 H           3.7898    2.2177   -2.2565 H       0  HOH0        0.2052
    153 H           4.0096    1.3433   -1.0241 H       0  HOH0        0.2052
    154 O           3.2278    2.8376    1.1147 O.3    52  HOH52      -0.4105
    155 H           3.9821    2.9770    1.7068 H       0  HOH0        0.2052
    156 H           3.4887    2.0732    0.5793 H       0  HOH0        0.2052
    157 O           3.5401    1.2826    3.5033 O.3    53  HOH53      -0.4105
    158 H           2.8750    1.9761    3.6282 H       0  HOH0        0.2052
    159 H           3.9907    1.5353    2.6835 H       0  HOH0        0.2052
    160 O           3.1919    2.2288    5.7840 O.3    54  HOH54      -0.4105
    161 H           2.9800    2.9785    6.3601 H       0  HOH0        0.2052
    162 H           3.8294    2.5926    5.1513 H       0  HOH0        0.2052
    163 O           3.5172    4.1965   -4.3164 O.3    55  HOH55      -0.4105
    164 H           3.4427    3.9470   -3.3831 H       0  HOH0        0.2052
    165 H           3.9673    5.0543   -4.2942 H       0  HOH0        0.2052
    166 O           4.0240    5.3708   -1.5920 O.3    56  HOH56      -0.4105
    167 H           4.2759    4.4486   -1.7500 H       0  HOH0        0.2052
    168 H           4.0043    5.7631   -2.4778 H       0  HOH0        0.2052
    169 O           3.0573    5.0166    1.8183 O.3    57  HOH57      -0.4105
    170 H           3.8791    5.5278    1.7697 H       0  HOH0        0.2052
    171 H           2.8188    4.8682    0.8909 H       0  HOH0        0.2052
    172 O           3.9571    4.2682    4.0833 O.3    58  HOH58      -0.4105
    173 H           3.3308    4.9889    3.9184 H       0  HOH0        0.2052
    174 H           3.8385    3.6769    3.3249 H       0  HOH0        0.2052
    175 O           1.7473    4.3903    5.4778 O.3    59  HOH59      -0.4105
    176 H           1.6226    4.0077    6.3592 H       0  HOH0        0.2052
    177 H           0.8658    4.3486    5.0776 H       0  HOH0        0.2052
    178 O           1.9375    6.4484   -4.3152 O.3    60  HOH60      -0.4105
    179 H           2.3524    5.8356   -3.6896 H       0  HOH0        0.2052
    180 H           2.5240    7.2198   -4.3112 H       0  HOH0        0.2052
    181 O           2.3838    7.1992   -1.5929 O.3    61  HOH61      -0.4105
    182 H           2.0341    6.2969   -1.5438 H       0  HOH0        0.2052
    183 H           2.8588    7.2206   -2.4372 H       0  HOH0        0.2052
    184 O           3.9469    7.2206    0.2981 O.3    62  HOH62      -0.4105
    185 H           3.4496    6.4290    0.0431 H       0  HOH0        0.2052
    186 H           3.9174    7.2136    1.2667 H       0  HOH0        0.2052
    187 O           4.2611    7.2194    3.4405 O.3    63  HOH63      -0.4105
    188 H           3.6267    6.5744    3.0937 H       0  HOH0        0.2052
    189 H           4.2288    7.0870    4.3999 H       0  HOH0        0.2052
    190 O           3.2890    6.2588    6.2764 O.3    64  HOH64      -0.4105
    191 H           3.3822    7.2197    6.3595 H       0  HOH0        0.2052
    192 H           4.0216    6.0018    5.6967 H       0  HOH0        0.2052
    193 O           5.8217   -3.4951   -4.3150 O.3    65  HOH65      -0.4105
    194 H           6.2528   -4.0180   -3.6225 H       0  HOH0        0.2052
    195 H           6.3039   -2.6546   -4.3082 H       0  HOH0        0.2052
    196 O           6.3052   -3.5364   -1.5234 O.3    66  HOH66      -0.4105
    197 H           5.5349   -3.8613   -2.0134 H       0  HOH0        0.2052
    198 H           6.2687   -4.0181   -0.6835 H       0  HOH0        0.2052
    199 O           6.3053   -2.6569    1.0679 O.3    67  HOH67      -0.4105
    200 H           6.2920   -3.6238    1.0053 H       0  HOH0        0.2052
    201 H           5.6462   -2.4573    1.7496 H       0  HOH0        0.2052
    202 O           6.0055   -4.0189    3.6153 O.3    68  HOH68      -0.4105
    203 H           6.2722   -4.0139    2.6838 H       0  HOH0        0.2052
    204 H           6.3057   -3.1603    3.9494 H       0  HOH0        0.2052
    205 O           6.3019   -3.7694    6.3609 O.3    69  HOH69      -0.4105
    206 H           5.8247   -4.0196    5.5555 H       0  HOH0        0.2052
    207 H           6.3045   -2.8006    6.3400 H       0  HOH0        0.2052
    208 O           5.8993   -0.7077   -4.3165 O.3    70  HOH70      -0.4105
    209 H           6.2388   -1.1348   -3.5157 H       0  HOH0        0.2052
    210 H           6.3047    0.1723   -4.3022 H       0  HOH0        0.2052
    211 O           6.3039   -0.8318   -1.3169 O.3    71  HOH71      -0.4105
    212 H           5.7094   -1.4883   -1.7100 H       0  HOH0        0.2052
    213 H           6.2654   -1.0200   -0.3672 H       0  HOH0        0.2052
    214 O           4.4617   -0.3295    1.8812 O.3    72  HOH72      -0.4105
    215 H           4.9962   -0.6816    1.1537 H       0  HOH0        0.2052
    216 H           3.6998    0.0733    1.4382 H       0  HOH0        0.2052
    217 O           6.2838   -1.1894    3.3882 O.3    73  HOH73      -0.4105
    218 H           6.3051   -0.8414    2.4841 H       0  HOH0        0.2052
    219 H           5.4848   -1.7371    3.4094 H       0  HOH0        0.2052
    220 O           5.4945   -0.7471    5.9178 O.3    74  HOH74      -0.4105
    221 H           6.3051   -0.5187    5.4385 H       0  HOH0        0.2052
    222 H           4.9382   -1.1719    5.2477 H       0  HOH0        0.2052
    223 O           6.3041    2.0794   -3.9271 O.3    75  HOH75      -0.4105
    224 H           5.4574    2.3446   -4.3167 H       0  HOH0        0.2052
    225 H           6.3004    2.4970   -3.0527 H       0  HOH0        0.2052
    226 O           5.5983    2.6623   -1.1193 O.3    76  HOH76      -0.4105
    227 H           4.7935    2.8704   -0.6214 H       0  HOH0        0.2052
    228 H           6.3049    3.0875   -0.6104 H       0  HOH0        0.2052
    229 O           6.3057    1.3456    0.6404 O.3    77  HOH77      -0.4105
    230 H           6.3038    0.3888    0.7932 H       0  HOH0        0.2052
    231 H           5.4115    1.6241    0.8891 H       0  HOH0        0.2052
    232 O           6.3057    0.9812    3.2014 O.3    78  HOH78      -0.4105
    233 H           5.7010    0.7514    3.9229 H       0  HOH0        0.2052
    234 H           5.8149    1.6377    2.6847 H       0  HOH0        0.2052
    235 O           6.3045    1.9755    5.7922 O.3    79  HOH79      -0.4105
    236 H           6.2981    1.1904    6.3601 H       0  HOH0        0.2052
    237 H           5.5531    1.8391    5.1958 H       0  HOH0        0.2052
    238 O           6.2998    4.2629   -4.3168 O.3    80  HOH80      -0.4105
    239 H           5.4574    4.0312   -3.8977 H       0  HOH0        0.2052
    240 H           6.3047    5.2318   -4.3125 H       0  HOH0        0.2052
    241 O           6.3047    4.6698   -2.0303 O.3    81  HOH81      -0.4105
    242 H           6.2363    4.7805   -1.0701 H       0  HOH0        0.2052
    243 H           6.0131    5.5229   -2.3856 H       0  HOH0        0.2052
    244 O           5.3497    4.1983    0.8674 O.3    82  HOH82      -0.4105
    245 H           5.1392    4.9594    0.3058 H       0  HOH0        0.2052
    246 H           6.1784    4.4502    1.3019 H       0  HOH0        0.2052
    247 O           6.3046    3.6561    3.4196 O.3    83  HOH83      -0.4105
    248 H           6.2973    3.1955    2.5671 H       0  HOH0        0.2052
    249 H           5.8585    3.0415    4.0215 H       0  HOH0        0.2052
    250 O           4.9121    4.2230    6.3580 O.3    84  HOH84      -0.4105
    251 H           3.9556    4.3084    6.2286 H       0  HOH0        0.2052
    252 H           5.0634    3.2659    6.3612 H       0  HOH0        0.2052
    253 O           5.1697    7.1980   -3.6825 O.3    85  HOH85      -0.4105
    254 H           5.3431    6.4859   -4.3164 H       0  HOH0        0.2052
    255 H           4.2034    7.2203   -3.6140 H       0  HOH0        0.2052
    256 O           6.2011    7.2201   -1.2015 O.3    86  HOH86      -0.4105
    257 H           6.3056    6.3887   -0.7148 H       0  HOH0        0.2052
    258 H           5.2798    7.2016   -1.5013 H       0  HOH0        0.2052
    259 O           6.1350    7.1267    1.2415 O.3    87  HOH87      -0.4105
    260 H           5.7689    7.2201    2.1338 H       0  HOH0        0.2052
    261 H           6.3046    6.1765    1.1563 H       0  HOH0        0.2052
    262 O           6.3047    5.9558    3.8120 O.3    88  HOH88      -0.4105
    263 H           6.3004    6.9211    3.7272 H       0  HOH0        0.2052
    264 H           5.4568    5.6835    3.4301 H       0  HOH0        0.2052
    265 O           6.0249    6.8930    6.3601 O.3    89  HOH89      -0.4105
    266 H           6.0025    5.9303    6.2523 H       0  HOH0        0.2052
    267 H           6.3041    7.2195    5.4916 H       0  HOH0        0.2052
@<TRIPOS>BOND
     1     1     2    1
     2     1     3    1
     3     4     5    1
     4     4     6    1
     5     7     8    1
     6     7     9    1
     7    10    11    1
     8    10    12    1
     9    13    14    1
    10    13    15    1
    11    16    17    1
    12    16    18    1
    13    19    20    1
    14    19    21    1
    15    22    23    1
    16    22    24    1
    17    25    26    1
    18    25    27    1
    19    28    29    1
    20    28    30    1
    21    31    32    1
    22    31    33    1
    23    34    35    1
    24    34    36    1
    25    37    38    1
    26    37    39    1
    27    40    41    1
    28    40    42    1
    29    43    44    1
    30    43    45    1
    31    46    47    1
    32    46    48    1
    33    49    50    1
    34    49    51    1
    35    52    53    1
    36    52    54    1
    37    55    56    1
    38    55    57    1
    39    58    59    1
    40    58    60    1
    41    61    62    1
    42    61    63    1
    43    64    65    1
    44    64    66    1
    45    67    68    1
    46    67    69    1
    47    70    71    1
    48    70    72    1
    49    73    74    1
    50    73    75    1
    51    76    77    1
    52    76    78    1
    53    79    80    1
    54    79    81    1
    55    82    83    1
    56    82    84    1
    57    85    86    1
    58    85    87    1
    59    88    89    1
    60    88    90    1
    61    91    92    1
    62    91    93    1
    63    94    95    1
    64    94    96    1
    65    97    98    1
    66    97    99    1
    67   100   101    1
    68   100   102    1
    69   103   104    1
    70   103   105    1
    71   106   107    1
    72   106   108    1
    73   109   110    1
    74   109   111    1
    75   112   113    1
    76   112   114    1
    77   115   116    1
    78   115   117    1
    79   118   119    1
    80   118   120    1
    81   121   122    1
    82   121   123    1
    83   124   125    1
    84   124   126    1
    85   127   128    1
    86   127   129    1
    87   130   131    1
    88   130   132    1
    89   133   134    1
    90   133   135    1
    91   136   137    1
    92   136   138    1
    93   139   140    1
    94   139   141    1
    95   142   143    1
    96   142   144    1
    97   145   146    1
    98   145   147    1
    99   148   149    1
   100   148   150    1
   101   151   152    1
   102   151   153    1
   103   154   155    1
   104   154   156    1
   105   157   158    1
   106   157   159    1
   107   160   161    1
   108   160   162    1
   109   163   164    1
   110   163   165    1
   111   166   167    1
   112   166   168    1
   113   169   170    1
   114   169   171    1
   115   172   173    1
   116   172   174    1
   117   175   176    1
   118   175   177    1
   119   178   179    1
   120   178   180    1
   121   181   182    1
   122   181   183    1
   123   184   185    1
   124   184   186    1
   125   187   188    1
   126   187   189    1
   127   190   191    1
   128   190   192    1
   129   193   194    1
   130   193   195    1
   131   196   197    1
   132   196   198    1
   133   199   200    1
   134   199   201    1
   135   202   203    1
   136   202   204    1
   137   205   206    1
   138   205   207    1
   139   208   209    1
   140   208   210    1
   141   211   212    1
   142   211   213    1
   143   214   215    1
   144   214   216    1
   145   217   218    1
   146   217   219    1
   147   220   221    1
   148   220   222    1
   149   223   224    1
   150   223   225    1
   151   226   227    1
   152   226   228    1
   153   229   230    1
   154   229   231    1
   155   232   233    1
   156   232   234    1
   157   235   236    1
   158   235   237    1
   159   238   239    1
   160   238   240    1
   161   241   242    1
   162   241   243    1
   163   244   245    1
   164   244   246    1
   165   247   248    1
   166   247   249    1
   167   250   251    1
   168   250   252    1
   169   253   254    1
   170   253   255    1
   171   256   257    1
   172   256   258    1
   173   259   260    1
   174   259   261    1
   175   262   263    1
   176   262   264    1
   177   265   266    1
   178   265   267    1
