@<TRIPOS>MOLECULE
*****
 288 300 0 0 0
SMALL
GASTEIGER

@<TRIPOS>ATOM
      1 O          -1.1129    1.4033    0.2108 O.3     1  UNL1       -0.2033
      2 O          -4.6430   -1.6874    0.2084 O.3     1  UNL1       -0.1857
      3 N          -2.4659   -2.5087    0.2083 N.3     1  UNL1       -0.2338
      4 N           0.6882   -0.9853    0.2087 N.3     1  UNL1       -0.2723
      5 N          -2.8975   -0.1254    0.2094 N.3     1  UNL1       -0.2218
      6 N          -0.0723   -3.0809    0.2082 N.3     1  UNL1       -0.1913
      7 C          -0.6744   -0.8972    0.2083 C.3     1  UNL1        0.1358
      8 C          -1.1142   -2.1928    0.2081 C.3     1  UNL1        0.1537
      9 C          -1.5269    0.2471    0.2090 C.3     1  UNL1        0.2320
     10 C          -3.4265   -1.4665    0.2084 C.3     1  UNL1        0.2787
     11 C           1.0026   -2.3197    0.2087 C.3     1  UNL1        0.1105
     12 C          -2.8944   -3.9019    0.2085 C.3     1  UNL1       -0.0068
     13 C           1.6390    0.1007    0.2099 C.3     1  UNL1       -0.0104
     14 C          -3.8708    0.9619    0.2107 C.3     1  UNL1       -0.0058
     15 H           2.0237   -2.6763    0.2090 H       1  UNL1        0.0675
     16 H          -2.5010   -4.3943   -0.6863 H       1  UNL1        0.0393
     17 H          -3.9838   -3.9895    0.2087 H       1  UNL1        0.0393
     18 H          -2.5006   -4.3941    1.1031 H       1  UNL1        0.0393
     19 H           2.6547   -0.3031    0.2096 H       1  UNL1        0.0391
     20 H           1.4799    0.7009   -0.6893 H       1  UNL1        0.0391
     21 H           1.4798    0.6991    1.1103 H       1  UNL1        0.0391
     22 H          -3.4042    1.9494    0.2102 H       1  UNL1        0.0393
     23 H          -4.5041    0.8621    1.0981 H       1  UNL1        0.0393
     24 H          -4.5065    0.8623   -0.6749 H       1  UNL1        0.0393
     25 O          -1.1168    1.4033    1.4163 O.3     2  UNL2       -0.2033
     26 O          -4.6469   -1.6874    1.4154 O.3     2  UNL2       -0.1857
     27 N          -2.4698   -2.5087    1.4157 N.3     2  UNL2       -0.2338
     28 N           0.6843   -0.9853    1.4154 N.3     2  UNL2       -0.2723
     29 N          -2.9014   -0.1254    1.4156 N.3     2  UNL2       -0.2218
     30 N          -0.0762   -3.0809    1.4159 N.3     2  UNL2       -0.1913
     31 C          -0.6783   -0.8972    1.4149 C.3     2  UNL2        0.1358
     32 C          -1.1181   -2.1928    1.4153 C.3     2  UNL2        0.1537
     33 C          -1.5308    0.2471    1.4151 C.3     2  UNL2        0.2320
     34 C          -3.4304   -1.4665    1.4153 C.3     2  UNL2        0.2787
     35 C           0.9987   -2.3197    1.4160 C.3     2  UNL2        0.1105
     36 C          -2.8983   -3.9019    1.4165 C.3     2  UNL2       -0.0068
     37 C           1.6350    0.1007    1.4160 C.3     2  UNL2       -0.0104
     38 C          -3.8747    0.9619    1.4164 C.3     2  UNL2       -0.0058
     39 H           2.0199   -2.6763    1.4165 H       2  UNL2        0.0675
     40 H          -2.5049   -4.3947    0.5220 H       2  UNL2        0.0393
     41 H          -3.9876   -3.9895    1.4168 H       2  UNL2        0.0393
     42 H          -2.5045   -4.3937    2.3114 H       2  UNL2        0.0393
     43 H           2.6508   -0.3030    1.4159 H       2  UNL2        0.0391
     44 H           1.4760    0.7005    0.5165 H       2  UNL2        0.0391
     45 H           1.4758    0.6996    2.3161 H       2  UNL2        0.0391
     46 H          -3.4081    1.9494    1.4154 H       2  UNL2        0.0393
     47 H          -4.5080    0.8626    2.3038 H       2  UNL2        0.0393
     48 H          -4.5104    0.8619    0.5308 H       2  UNL2        0.0393
     49 O          -1.2962    2.6397    3.9277 O.3     3  UNL3       -0.2033
     50 O          -4.6150   -0.6769    3.9268 O.3     3  UNL3       -0.1857
     51 N          -2.3886   -1.3529    3.9271 N.3     3  UNL3       -0.2338
     52 N           0.6583    0.3749    3.9268 N.3     3  UNL3       -0.2723
     53 N          -2.9762    0.9967    3.9270 N.3     3  UNL3       -0.2218
     54 N           0.0376   -1.7663    3.9273 N.3     3  UNL3       -0.1913
     55 C          -0.7071    0.3730    3.9263 C.3     3  UNL3        0.1358
     56 C          -1.0606   -0.9487    3.9267 C.3     3  UNL3        0.1537
     57 C          -1.6332    1.4587    3.9265 C.3     3  UNL3        0.2320
     58 C          -3.4158   -0.3763    3.9267 C.3     3  UNL3        0.2787
     59 C           1.0599   -0.9359    3.9274 C.3     3  UNL3        0.1105
     60 C          -2.7244   -2.7714    3.9279 C.3     3  UNL3       -0.0068
     61 C           1.5355    1.5212    3.9274 C.3     3  UNL3       -0.0104
     62 C          -4.0190    2.0175    3.9278 C.3     3  UNL3       -0.0058
     63 H           2.1024   -1.2244    3.9279 H       3  UNL3        0.0675
     64 H          -2.2994   -3.2372    3.0334 H       3  UNL3        0.0393
     65 H          -3.8056   -2.9305    3.9282 H       3  UNL3        0.0393
     66 H          -2.2990   -3.2362    4.8228 H       3  UNL3        0.0393
     67 H           2.5756    1.1852    3.9273 H       3  UNL3        0.0391
     68 H           1.3373    2.1092    3.0279 H       3  UNL3        0.0391
     69 H           1.3372    2.1083    4.8275 H       3  UNL3        0.0391
     70 H          -3.6185    3.0336    3.9268 H       3  UNL3        0.0393
     71 H          -4.6444    1.8767    4.8152 H       3  UNL3        0.0393
     72 H          -4.6467    1.8759    3.0422 H       3  UNL3        0.0393
     73 O          -1.0456    2.2407    7.1872 O.3     4  UNL4       -0.2033
     74 O          -4.6427   -0.7717    7.1863 O.3     4  UNL4       -0.1857
     75 N          -2.4842   -1.6406    7.1866 N.3     4  UNL4       -0.2338
     76 N           0.7026   -0.1869    7.1863 N.3     4  UNL4       -0.2723
     77 N          -2.8633    0.7516    7.1865 N.3     4  UNL4       -0.2218
     78 N          -0.1037   -2.2653    7.1868 N.3     4  UNL4       -0.1913
     79 C          -0.6577   -0.0689    7.1858 C.3     4  UNL4        0.1358
     80 C          -1.1259   -1.3545    7.1862 C.3     4  UNL4        0.1537
     81 C          -1.4849    1.0939    7.1860 C.3     4  UNL4        0.2320
     82 C          -3.4217   -0.5776    7.1862 C.3     4  UNL4        0.2787
     83 C           0.9876   -1.5279    7.1869 C.3     4  UNL4        0.1105
     84 C          -2.9432   -3.0241    7.1874 C.3     4  UNL4       -0.0068
     85 C           1.6770    0.8780    7.1869 C.3     4  UNL4       -0.0104
     86 C          -3.8125    1.8600    7.1873 C.3     4  UNL4       -0.0058
     87 H           2.0007   -1.9068    7.1874 H       4  UNL4        0.0675
     88 H          -2.5607   -3.5254    6.2929 H       4  UNL4        0.0393
     89 H          -4.0342   -3.0877    7.1877 H       4  UNL4        0.0393
     90 H          -2.5603   -3.5244    8.0823 H       4  UNL4        0.0393
     91 H           2.6836    0.4520    7.1868 H       4  UNL4        0.0391
     92 H           1.5312    1.4811    6.2874 H       4  UNL4        0.0391
     93 H           1.5310    1.4802    8.0870 H       4  UNL4        0.0391
     94 H          -3.3243    2.8370    7.1863 H       4  UNL4        0.0393
     95 H          -4.4478    1.7746    8.0747 H       4  UNL4        0.0393
     96 H          -4.4502    1.7740    6.3017 H       4  UNL4        0.0393
     97 O          -1.0574    1.3459    9.9947 O.3     5  UNL5       -0.2033
     98 O          -4.6458   -1.4318   11.1867 O.3     5  UNL5       -0.1857
     99 N          -2.5774   -2.4211   10.7903 N.3     5  UNL5       -0.2338
    100 N           0.5629   -1.1661    9.8781 N.3     5  UNL5       -0.2723
    101 N          -2.8697   -0.0249   10.5929 N.3     5  UNL5       -0.2218
    102 N          -0.2857   -3.1811   10.3132 N.3     5  UNL5       -0.1913
    103 C          -0.7543   -0.9690   10.1788 C.3     5  UNL5        0.1358
    104 C          -1.2495   -2.2172   10.4410 C.3     5  UNL5        0.1537
    105 C          -1.5206    0.2336   10.2321 C.3     5  UNL5        0.2320
    106 C          -3.4541   -1.3111   10.8805 C.3     5  UNL5        0.2787
    107 C           0.7973   -2.5136    9.9725 C.3     5  UNL5        0.1105
    108 C          -3.0667   -3.7669   11.0624 C.3     5  UNL5       -0.0068
    109 C           1.5430   -0.1666    9.5258 C.3     5  UNL5       -0.0104
    110 C          -3.7560    1.1310   10.6815 C.3     5  UNL5       -0.0058
    111 H           1.7691   -2.9492    9.7833 H       5  UNL5        0.0675
    112 H          -2.9233   -4.3839   10.1699 H       5  UNL5        0.0393
    113 H          -4.1280   -3.7658   11.3231 H       5  UNL5        0.0393
    114 H          -2.4987   -4.1889   11.8973 H       5  UNL5        0.0393
    115 H           2.5068   -0.6486    9.3432 H       5  UNL5        0.0391
    116 H           1.2073    0.3429    8.6193 H       5  UNL5        0.0391
    117 H           1.6336    0.5371   10.3569 H       5  UNL5        0.0391
    118 H          -3.2513    2.0717   10.4509 H       5  UNL5        0.0393
    119 H          -4.1653    1.1799   11.6956 H       5  UNL5        0.0393
    120 H          -4.5879    0.9872    9.9845 H       5  UNL5        0.0393
    121 O          -0.9069    5.8042    3.4579 O.3     6  UNL6       -0.2033
    122 O          -4.6471    4.1725    1.1423 O.3     6  UNL6       -0.1857
    123 N          -2.5911    4.1604    0.0527 N.3     6  UNL6       -0.2338
    124 N           0.6367    5.1568    0.9784 N.3     6  UNL6       -0.2723
    125 N          -2.7946    4.9922    2.3183 N.3     6  UNL6       -0.2218
    126 N          -0.3003    4.2706   -0.8400 N.3     6  UNL6       -0.1913
    127 C          -0.6892    5.0056    1.2671 C.3     6  UNL6        0.1358
    128 C          -1.2389    4.4618    0.1383 C.3     6  UNL6        0.1537
    129 C          -1.4187    5.3174    2.4533 C.3     6  UNL6        0.2320
    130 C          -3.4359    4.4199    1.1609 C.3     6  UNL6        0.2787
    131 C           0.8220    4.7004   -0.3010 C.3     6  UNL6        0.1105
    132 C          -3.1386    3.5812   -1.1678 C.3     6  UNL6       -0.0068
    133 C           1.6675    5.6906    1.8363 C.3     6  UNL6       -0.0104
    134 C          -3.6474    5.2657    3.4705 C.3     6  UNL6       -0.0058
    135 H           1.7890    4.7051   -0.7854 H       6  UNL6        0.0675
    136 H          -2.9614    4.2713   -1.9985 H       6  UNL6        0.0393
    137 H          -4.2130    3.4007   -1.0826 H       6  UNL6        0.0393
    138 H          -2.6355    2.6296   -1.3656 H       6  UNL6        0.0393
    139 H           2.6248    5.6775    1.3089 H       6  UNL6        0.0391
    140 H           1.4033    6.7186    2.0965 H       6  UNL6        0.0391
    141 H           1.7304    5.0667    2.7313 H       6  UNL6        0.0391
    142 H          -3.1000    5.6987    4.3106 H       6  UNL6        0.0393
    143 H          -4.1151    4.3285    3.7887 H       6  UNL6        0.0393
    144 H          -4.4400    5.9550    3.1622 H       6  UNL6        0.0393
    145 O          -0.7040    8.8290    5.3481 O.3     7  UNL7       -0.2033
    146 O           0.3839    6.3495    1.5163 O.3     7  UNL7       -0.1857
    147 N           0.2073    5.2178    3.5417 N.3     7  UNL7       -0.2338
    148 N          -0.5393    6.2254    6.8122 N.3     7  UNL7       -0.2723
    149 N          -0.1599    7.6085    3.4152 N.3     7  UNL7       -0.2218
    150 N          -0.0466    4.2962    5.8096 N.3     7  UNL7       -0.1913
    151 C          -0.3514    6.5182    5.4919 C.3     7  UNL7        0.1358
    152 C          -0.0514    5.3209    4.9016 C.3     7  UNL7        0.1537
    153 C          -0.4316    7.7640    4.8006 C.3     7  UNL7        0.2320
    154 C           0.1623    6.3804    2.7322 C.3     7  UNL7        0.2787
    155 C          -0.3451    4.8757    6.9540 C.3     7  UNL7        0.1105
    156 C           0.5229    3.9234    2.9503 C.3     7  UNL7       -0.0068
    157 C          -0.8786    7.1406    7.8756 C.3     7  UNL7       -0.0104
    158 C          -0.2124    8.8169    2.5987 C.3     7  UNL7       -0.0058
    159 H          -0.4335    4.3728    7.9075 H       7  UNL7        0.0675
    160 H           1.4230    3.5248    3.4286 H       7  UNL7        0.0393
    161 H           0.7012    4.0033    1.8751 H       7  UNL7        0.0393
    162 H          -0.3167    3.2420    3.1192 H       7  UNL7        0.0393
    163 H          -0.9571    6.5925    8.8180 H       7  UNL7        0.0391
    164 H          -0.0892    7.8925    7.9502 H       7  UNL7        0.0391
    165 H          -1.8383    7.6063    7.6383 H       7  UNL7        0.0391
    166 H          -0.4600    9.7096    3.1771 H       7  UNL7        0.0393
    167 H          -0.9624    8.6754    1.8140 H       7  UNL7        0.0393
    168 H           0.7615    8.9562    2.1186 H       7  UNL7        0.0393
    169 O           0.5494    9.2562    6.3423 O.3     8  UNL8       -0.2033
    170 O          -3.0410    6.3366    5.5687 O.3     8  UNL8       -0.1857
    171 N          -0.9440    5.4133    5.9739 N.3     8  UNL8       -0.2338
    172 N           2.2110    6.7854    6.6315 N.3     8  UNL8       -0.2723
    173 N          -1.2642    7.8140    5.9519 N.3     8  UNL8       -0.2218
    174 N           1.3759    4.7285    6.4280 N.3     8  UNL8       -0.1913
    175 C           0.8802    6.9379    6.3664 C.3     8  UNL8        0.1358
    176 C           0.3936    5.6648    6.2466 C.3     8  UNL8        0.1537
    177 C           0.0944    8.1211    6.2297 C.3     8  UNL8        0.2320
    178 C          -1.8400    6.4996    5.8127 C.3     8  UNL8        0.2787
    179 C           2.4614    5.4378    6.6586 C.3     8  UNL8        0.1105
    180 C          -1.4238    4.0421    5.8542 C.3     8  UNL8       -0.0068
    181 C           3.1888    7.8251    6.8469 C.3     8  UNL8       -0.0104
    182 C          -2.1709    8.9459    5.7906 C.3     8  UNL8       -0.0058
    183 H           3.4462    5.0334    6.8498 H       8  UNL8        0.0675
    184 H          -0.8835    3.5468    5.0414 H       8  UNL8        0.0393
    185 H          -2.4946    4.0062    5.6388 H       8  UNL8        0.0393
    186 H          -1.2354    3.5168    6.7956 H       8  UNL8        0.0393
    187 H           4.1663    7.3737    7.0352 H       8  UNL8        0.0391
    188 H           3.2360    8.4472    5.9498 H       8  UNL8        0.0391
    189 H           2.8814    8.4151    7.7138 H       8  UNL8        0.0391
    190 H          -1.6712    9.9101    5.9070 H       8  UNL8        0.0393
    191 H          -2.9702    8.8614    6.5338 H       8  UNL8        0.0393
    192 H          -2.6235    8.8915    4.7953 H       8  UNL8        0.0393
    193 O           1.2011    4.2520   11.1974 O.3     9  UNL9       -0.2033
    194 O          -1.9997    7.4610    9.9847 O.3     9  UNL9       -0.1857
    195 N          -2.7517    5.4045   10.7717 N.3     9  UNL9       -0.2338
    196 N          -1.1293    2.5017   11.8721 N.3     9  UNL9       -0.2723
    197 N          -0.3833    5.8751   10.5836 N.3     9  UNL9       -0.2218
    198 N          -3.2479    3.1527   11.6321 N.3     9  UNL9       -0.1913
    199 C          -1.0844    3.7766   11.3854 C.3     9  UNL9        0.1358
    200 C          -2.3932    4.1509   11.2479 C.3     9  UNL9        0.1537
    201 C           0.0324    4.6054   11.0656 C.3     9  UNL9        0.2320
    202 C          -1.7405    6.3311   10.4144 C.3     9  UNL9        0.2787
    203 C          -2.4531    2.1705   12.0038 C.3     9  UNL9        0.1105
    204 C          -4.1578    5.7655   10.6400 C.3     9  UNL9       -0.0068
    205 C          -0.0138    1.6447   12.1954 C.3     9  UNL9       -0.0104
    206 C           0.6727    6.8153   10.2223 C.3     9  UNL9       -0.0058
    207 H          -2.7772    1.2068   12.3728 H       9  UNL9        0.0675
    208 H          -4.6409    5.0654    9.9513 H       9  UNL9        0.0393
    209 H          -4.2798    6.7805   10.2538 H       9  UNL9        0.0393
    210 H          -4.6338    5.7025   11.6235 H       9  UNL9        0.0393
    211 H          -0.3852    0.6846   12.5626 H       9  UNL9        0.0391
    212 H           0.5776    1.4899   11.2896 H       9  UNL9        0.0391
    213 H           0.5828    2.1310   12.9711 H       9  UNL9        0.0391
    214 H           1.6744    6.4071   10.3732 H       9  UNL9        0.0393
    215 H           0.5563    7.7200   10.8275 H       9  UNL9        0.0393
    216 H           0.5496    7.0907    9.1700 H       9  UNL9        0.0393
    217 O           6.2625    1.4809    0.4441 O.3    10  UNL10      -0.2033
    218 O           2.9788   -1.5904   -0.8968 O.3    10  UNL10      -0.1857
    219 N           4.7590   -2.3751    0.3796 N.3    10  UNL10      -0.2338
    220 N           7.5823   -0.8473    1.7809 N.3    10  UNL10      -0.2723
    221 N           4.6057   -0.0386   -0.2396 N.3    10  UNL10      -0.2218
    222 N           6.7461   -2.9132    1.7283 N.3    10  UNL10      -0.1913
    223 C           6.4301   -0.7745    1.0520 C.3    10  UNL10       0.1358
    224 C           5.9388   -2.0514    1.0354 C.3    10  UNL10       0.1537
    225 C           5.8067    0.3409    0.4167 C.3    10  UNL10       0.2320
    226 C           4.0348   -1.3613   -0.2959 C.3    10  UNL10       0.2787
    227 C           7.7299   -2.1547    2.1661 C.3    10  UNL10       0.1105
    228 C           4.2685   -3.7478    0.3855 C.3    10  UNL10      -0.0068
    229 C           8.4894    0.2291    2.1005 C.3    10  UNL10      -0.0104
    230 C           3.8740    1.0197   -0.9281 C.3    10  UNL10      -0.0058
    231 H           8.5673   -2.4946    2.7604 H      10  UNL10       0.0675
    232 H           5.0211   -4.3956   -0.0746 H      10  UNL10       0.0393
    233 H           3.3327   -3.8446   -0.1706 H      10  UNL10       0.0393
    234 H           4.0977   -4.0590    1.4207 H      10  UNL10       0.0393
    235 H           9.3182   -0.1573    2.6992 H      10  UNL10       0.0391
    236 H           8.8722    0.6479    1.1666 H      10  UNL10       0.0391
    237 H           7.9429    0.9845    2.6705 H      10  UNL10       0.0391
    238 H           4.3607    1.9941   -0.8473 H      10  UNL10       0.0393
    239 H           2.8676    1.0822   -0.5021 H      10  UNL10       0.0393
    240 H           3.7809    0.7491   -1.9848 H      10  UNL10       0.0393
    241 O           5.7539    7.6630    0.7035 O.3    11  UNL11      -0.2033
    242 O           2.1568    6.4662    3.4680 O.3    11  UNL11      -0.1857
    243 N           4.3153    6.1216    4.2656 N.3    11  UNL11      -0.2338
    244 N           7.5021    6.6984    2.9313 N.3    11  UNL11      -0.2723
    245 N           3.9362    7.0712    2.0700 N.3    11  UNL11      -0.2218
    246 N           6.6958    5.8738    4.8391 N.3    11  UNL11      -0.1913
    247 C           6.1418    6.7448    2.8228 C.3    11  UNL11       0.1358
    248 C           5.6736    6.2348    4.0029 C.3    11  UNL11       0.1537
    249 C           5.3146    7.2066    1.7556 C.3    11  UNL11       0.2320
    250 C           3.3778    6.5432    3.2898 C.3    11  UNL11       0.2787
    251 C           7.7871    6.1666    4.1623 C.3    11  UNL11       0.1105
    252 C           3.8563    5.5731    5.5358 C.3    11  UNL11      -0.0068
    253 C           8.4765    7.1217    1.9541 C.3    11  UNL11      -0.0104
    254 C           2.9870    7.5119    1.0530 C.3    11  UNL11      -0.0058
    255 H           8.8002    6.0166    4.5103 H      11  UNL11       0.0675
    256 H           4.2388    4.5531    5.6408 H      11  UNL11       0.0393
    257 H           2.7653    5.5481    5.5943 H      11  UNL11       0.0393
    258 H           4.2392    6.1958    6.3502 H      11  UNL11       0.0393
    259 H           9.4831    6.9525    2.3451 H      11  UNL11       0.0391
    260 H           8.3307    6.5356    1.0435 H      11  UNL11       0.0391
    261 H           8.3305    8.1869    1.7587 H      11  UNL11       0.0391
    262 H           3.4752    7.8989    0.1559 H      11  UNL11       0.0393
    263 H           2.3517    8.2925    1.4837 H      11  UNL11       0.0393
    264 H           2.3493    6.6650    0.7803 H      11  UNL11       0.0393
    265 O           6.5384    2.2465   11.1562 O.3    12  UNL12      -0.2033
    266 O           9.6327    5.7730   11.1019 O.3    12  UNL12      -0.1857
    267 N           7.3674    6.3020   11.1533 N.3    12  UNL12      -0.2338
    268 N           4.4406    4.3786   11.2089 N.3    12  UNL12      -0.2723
    269 N           8.1071    3.9958   11.1283 N.3    12  UNL12      -0.2218
    270 N           4.9200    6.5557   11.2074 N.3    12  UNL12      -0.1913
    271 C           5.8026    4.4698   11.1793 C.3    12  UNL12       0.1358
    272 C           6.0690    5.8118   11.1791 C.3    12  UNL12       0.1537
    273 C           6.7974    3.4470   11.1540 C.3    12  UNL12       0.2320
    274 C           8.4559    5.3947   11.1258 C.3    12  UNL12       0.2787
    275 C           3.9543    5.6603   11.2250 C.3    12  UNL12       0.1105
    276 C           7.6098    7.7394   11.1544 C.3    12  UNL12      -0.0068
    277 C           3.6404    3.1773   11.2222 C.3    12  UNL12      -0.0104
    278 C           9.2142    3.0454   11.1015 C.3    12  UNL12      -0.0058
    279 H           2.8955    5.8800   11.2492 H      12  UNL12       0.0675
    280 H           7.1360    8.1798   10.2716 H      12  UNL12       0.0393
    281 H           8.6780    7.9689   11.1324 H      12  UNL12       0.0393
    282 H           7.1744    8.1719   12.0606 H      12  UNL12       0.0393
    283 H           2.5808    3.4446   11.2461 H      12  UNL12       0.0391
    284 H           3.8570    2.6071   10.3156 H      12  UNL12       0.0391
    285 H           3.8960    2.6011   12.1148 H      12  UNL12       0.0391
    286 H           8.8809    2.0053   11.1037 H      12  UNL12       0.0393
    287 H           9.8480    3.2234   11.9761 H      12  UNL12       0.0393
    288 H           9.8120    3.2312   10.2035 H      12  UNL12       0.0393
@<TRIPOS>BOND
     1     1     9    1
     2     2    10    1
     3     3     8    1
     4     3    10    1
     5     3    12    1
     6     4     7    1
     7     4    11    1
     8     4    13    1
     9     5     9    1
    10     5    10    1
    11     5    14    1
    12     6     8    1
    13     6    11    1
    14     7     8    1
    15     7     9    1
    16    11    15    1
    17    12    16    1
    18    12    17    1
    19    12    18    1
    20    13    19    1
    21    13    20    1
    22    13    21    1
    23    14    22    1
    24    14    23    1
    25    14    24    1
    26    25    33    1
    27    26    34    1
    28    27    32    1
    29    27    34    1
    30    27    36    1
    31    28    31    1
    32    28    35    1
    33    28    37    1
    34    29    33    1
    35    29    34    1
    36    29    38    1
    37    30    32    1
    38    30    35    1
    39    31    32    1
    40    31    33    1
    41    35    39    1
    42    36    40    1
    43    36    41    1
    44    36    42    1
    45    37    43    1
    46    37    44    1
    47    37    45    1
    48    38    46    1
    49    38    47    1
    50    38    48    1
    51    49    57    1
    52    50    58    1
    53    51    56    1
    54    51    58    1
    55    51    60    1
    56    52    55    1
    57    52    59    1
    58    52    61    1
    59    53    57    1
    60    53    58    1
    61    53    62    1
    62    54    56    1
    63    54    59    1
    64    55    56    1
    65    55    57    1
    66    59    63    1
    67    60    64    1
    68    60    65    1
    69    60    66    1
    70    61    67    1
    71    61    68    1
    72    61    69    1
    73    62    70    1
    74    62    71    1
    75    62    72    1
    76    73    81    1
    77    74    82    1
    78    75    80    1
    79    75    82    1
    80    75    84    1
    81    76    79    1
    82    76    83    1
    83    76    85    1
    84    77    81    1
    85    77    82    1
    86    77    86    1
    87    78    80    1
    88    78    83    1
    89    79    80    1
    90    79    81    1
    91    83    87    1
    92    84    88    1
    93    84    89    1
    94    84    90    1
    95    85    91    1
    96    85    92    1
    97    85    93    1
    98    86    94    1
    99    86    95    1
   100    86    96    1
   101    97   105    1
   102    98   106    1
   103    99   104    1
   104    99   106    1
   105    99   108    1
   106   100   103    1
   107   100   107    1
   108   100   109    1
   109   101   105    1
   110   101   106    1
   111   101   110    1
   112   102   104    1
   113   102   107    1
   114   103   104    1
   115   103   105    1
   116   107   111    1
   117   108   112    1
   118   108   113    1
   119   108   114    1
   120   109   115    1
   121   109   116    1
   122   109   117    1
   123   110   118    1
   124   110   119    1
   125   110   120    1
   126   121   129    1
   127   122   130    1
   128   123   128    1
   129   123   130    1
   130   123   132    1
   131   124   127    1
   132   124   131    1
   133   124   133    1
   134   125   129    1
   135   125   130    1
   136   125   134    1
   137   126   128    1
   138   126   131    1
   139   127   128    1
   140   127   129    1
   141   131   135    1
   142   132   136    1
   143   132   137    1
   144   132   138    1
   145   133   139    1
   146   133   140    1
   147   133   141    1
   148   134   142    1
   149   134   143    1
   150   134   144    1
   151   145   153    1
   152   146   154    1
   153   147   152    1
   154   147   154    1
   155   147   156    1
   156   148   151    1
   157   148   155    1
   158   148   157    1
   159   149   153    1
   160   149   154    1
   161   149   158    1
   162   150   152    1
   163   150   155    1
   164   151   152    1
   165   151   153    1
   166   155   159    1
   167   156   160    1
   168   156   161    1
   169   156   162    1
   170   157   163    1
   171   157   164    1
   172   157   165    1
   173   158   166    1
   174   158   167    1
   175   158   168    1
   176   169   177    1
   177   170   178    1
   178   171   176    1
   179   171   178    1
   180   171   180    1
   181   172   175    1
   182   172   179    1
   183   172   181    1
   184   173   177    1
   185   173   178    1
   186   173   182    1
   187   174   176    1
   188   174   179    1
   189   175   176    1
   190   175   177    1
   191   179   183    1
   192   180   184    1
   193   180   185    1
   194   180   186    1
   195   181   187    1
   196   181   188    1
   197   181   189    1
   198   182   190    1
   199   182   191    1
   200   182   192    1
   201   193   201    1
   202   194   202    1
   203   195   200    1
   204   195   202    1
   205   195   204    1
   206   196   199    1
   207   196   203    1
   208   196   205    1
   209   197   201    1
   210   197   202    1
   211   197   206    1
   212   198   200    1
   213   198   203    1
   214   199   200    1
   215   199   201    1
   216   203   207    1
   217   204   208    1
   218   204   209    1
   219   204   210    1
   220   205   211    1
   221   205   212    1
   222   205   213    1
   223   206   214    1
   224   206   215    1
   225   206   216    1
   226   217   225    1
   227   218   226    1
   228   219   224    1
   229   219   226    1
   230   219   228    1
   231   220   223    1
   232   220   227    1
   233   220   229    1
   234   221   225    1
   235   221   226    1
   236   221   230    1
   237   222   224    1
   238   222   227    1
   239   223   224    1
   240   223   225    1
   241   227   231    1
   242   228   232    1
   243   228   233    1
   244   228   234    1
   245   229   235    1
   246   229   236    1
   247   229   237    1
   248   230   238    1
   249   230   239    1
   250   230   240    1
   251   241   249    1
   252   242   250    1
   253   243   248    1
   254   243   250    1
   255   243   252    1
   256   244   247    1
   257   244   251    1
   258   244   253    1
   259   245   249    1
   260   245   250    1
   261   245   254    1
   262   246   248    1
   263   246   251    1
   264   247   248    1
   265   247   249    1
   266   251   255    1
   267   252   256    1
   268   252   257    1
   269   252   258    1
   270   253   259    1
   271   253   260    1
   272   253   261    1
   273   254   262    1
   274   254   263    1
   275   254   264    1
   276   265   273    1
   277   266   274    1
   278   267   272    1
   279   267   274    1
   280   267   276    1
   281   268   271    1
   282   268   275    1
   283   268   277    1
   284   269   273    1
   285   269   274    1
   286   269   278    1
   287   270   272    1
   288   270   275    1
   289   271   272    1
   290   271   273    1
   291   275   279    1
   292   276   280    1
   293   276   281    1
   294   276   282    1
   295   277   283    1
   296   277   284    1
   297   277   285    1
   298   278   286    1
   299   278   287    1
   300   278   288    1
