@<TRIPOS>MOLECULE
*****
 81 54 0 0 0
SMALL
GASTEIGER

@<TRIPOS>ATOM
      1 O           1.2277    0.3034    1.2430 O.3     1  HOH1       -0.4105
      2 H           0.4206    0.6113    1.6822 H       0  HOH0        0.2052
      3 H           1.7730   -0.0375    1.9678 H       0  HOH0        0.2052
      4 O           1.4227    0.7687    4.2210 O.3     2  HOH2       -0.4105
      5 H           0.4605    0.8720    4.1726 H       0  HOH0        0.2052
      6 H           1.7315    1.6155    4.5765 H       0  HOH0        0.2052
      7 O           1.3794    0.5066    6.7568 O.3     3  HOH3       -0.4105
      8 H           0.4991    0.8390    6.9883 H       0  HOH0        0.2052
      9 H           1.7304    0.1703    7.5951 H       0  HOH0        0.2052
     10 O           1.4162    3.0459    1.0316 O.3     4  HOH4       -0.4105
     11 H           1.4468    3.9618    1.3464 H       0  HOH0        0.2052
     12 H           1.9411    2.5568    1.6829 H       0  HOH0        0.2052
     13 O           0.1714    3.5381    4.3923 O.3     5  HOH5       -0.4105
     14 H           0.4804    4.4518    4.4859 H       0  HOH0        0.2052
     15 H           0.4081    3.3030    3.4825 H       0  HOH0        0.2052
     16 O           0.7085    3.5224    6.9321 O.3     6  HOH6       -0.4105
     17 H           1.0246    4.4355    6.8590 H       0  HOH0        0.2052
     18 H           1.4245    2.9952    6.5471 H       0  HOH0        0.2052
     19 O           1.3731    8.2069    0.3780 O.3     7  HOH7       -0.4105
     20 H           1.7232    7.9762   -0.4956 H       0  HOH0        0.2052
     21 H           0.7469    7.4942    0.5750 H       0  HOH0        0.2052
     22 O           1.9798    7.9496    3.5849 O.3     8  HOH8       -0.4105
     23 H           1.8186    7.4819    4.4181 H       0  HOH0        0.2052
     24 H           1.6971    7.3201    2.9046 H       0  HOH0        0.2052
     25 O           1.4673    7.3690    7.1729 O.3     9  HOH9       -0.4105
     26 H           1.8567    6.5164    7.4188 H       0  HOH0        0.2052
     27 H           0.5133    7.2255    7.2640 H       0  HOH0        0.2052
     28 O           3.4598    0.4034   -0.0036 O.3    10  HOH10      -0.4105
     29 H           3.8224    0.4324    0.8945 H       0  HOH0        0.2052
     30 H           3.0597    1.2778   -0.1229 H       0  HOH0        0.2052
     31 O           3.8326    0.6469    3.4785 O.3    11  HOH11      -0.4105
     32 H           4.1406    0.9241    4.3545 H       0  HOH0        0.2052
     33 H           3.6285    1.4800    3.0277 H       0  HOH0        0.2052
     34 O           4.0158    1.4970    7.1764 O.3    12  HOH12      -0.4105
     35 H           3.5111    1.8374    6.4225 H       0  HOH0        0.2052
     36 H           4.0631    0.5428    7.0147 H       0  HOH0        0.2052
     37 O           4.0447    3.7662    0.9999 O.3    13  HOH13      -0.4105
     38 H           4.3543    2.8919    1.2807 H       0  HOH0        0.2052
     39 H           3.6656    3.6094    0.1221 H       0  HOH0        0.2052
     40 O           2.9926    3.9786    3.3129 O.3    14  HOH14      -0.4105
     41 H           2.5690    4.8497    3.3388 H       0  HOH0        0.2052
     42 H           2.8057    3.6014    4.1856 H       0  HOH0        0.2052
     43 O           3.5676    4.0742    7.3030 O.3    15  HOH15      -0.4105
     44 H           3.6095    4.2728    6.3556 H       0  HOH0        0.2052
     45 H           3.8153    4.9088    7.7284 H       0  HOH0        0.2052
     46 O           3.3219    6.1568    1.4857 O.3    16  HOH16      -0.4105
     47 H           4.2454    6.2527    1.2087 H       0  HOH0        0.2052
     48 H           2.8332    6.0881    0.6517 H       0  HOH0        0.2052
     49 O           4.4156    7.6228    3.8651 O.3    17  HOH17      -0.4105
     50 H           4.5508    7.8701    2.9380 H       0  HOH0        0.2052
     51 H           4.2290    6.6727    3.8291 H       0  HOH0        0.2052
     52 O           4.0693    6.8793    6.3128 O.3    18  HOH18      -0.4105
     53 H           3.5898    7.6777    6.0455 H       0  HOH0        0.2052
     54 H           4.9974    7.1574    6.3275 H       0  HOH0        0.2052
     55 O           6.1805    1.0041   -0.0125 O.3    19  HOH19      -0.4105
     56 H           5.5975    1.6418   -0.4511 H       0  HOH0        0.2052
     57 H           6.1116    1.2314    0.9269 H       0  HOH0        0.2052
     58 O           7.1707    1.2670    3.2566 O.3    20  HOH20      -0.4105
     59 H           6.2329    1.5061    3.3047 H       0  HOH0        0.2052
     60 H           7.1987    0.3599    3.5963 H       0  HOH0        0.2052
     61 O           6.9842    1.7522    5.7280 O.3    21  HOH21      -0.4105
     62 H           6.1243    1.3257    5.8604 H       0  HOH0        0.2052
     63 H           7.6229    1.0923    6.0369 H       0  HOH0        0.2052
     64 O           6.5500    3.6245    0.6417 O.3    22  HOH22      -0.4105
     65 H           7.4514    3.3384    0.4307 H       0  HOH0        0.2052
     66 H           6.2260    4.0078   -0.1872 H       0  HOH0        0.2052
     67 O           7.8728    3.5422    3.1419 O.3    23  HOH23      -0.4105
     68 H           7.0589    4.0411    2.9760 H       0  HOH0        0.2052
     69 H           7.8856    3.4284    4.1041 H       0  HOH0        0.2052
     70 O           6.9107    3.7644    7.0008 O.3    24  HOH24      -0.4105
     71 H           6.0017    3.5320    7.2429 H       0  HOH0        0.2052
     72 H           7.3502    3.9086    7.8523 H       0  HOH0        0.2052
     73 O           7.7021    5.9999    1.3236 O.3    25  HOH25      -0.4105
     74 H           7.7969    6.9457    1.1351 H       0  HOH0        0.2052
     75 H           6.7441    5.8684    1.3854 H       0  HOH0        0.2052
     76 O           6.8909    6.8161    4.1058 O.3    26  HOH26      -0.4105
     77 H           6.9396    7.3232    3.2816 H       0  HOH0        0.2052
     78 H           6.7895    7.4931    4.7916 H       0  HOH0        0.2052
     79 O           7.3779    6.8913    6.9790 O.3    27  HOH27      -0.4105
     80 H           7.3878    7.7453    7.4367 H       0  HOH0        0.2052
     81 H           7.0613    6.2692    7.6510 H       0  HOH0        0.2052
@<TRIPOS>BOND
     1     1     2    1
     2     1     3    1
     3     4     5    1
     4     4     6    1
     5     7     8    1
     6     7     9    1
     7    10    11    1
     8    10    12    1
     9    13    14    1
    10    13    15    1
    11    16    17    1
    12    16    18    1
    13    19    20    1
    14    19    21    1
    15    22    23    1
    16    22    24    1
    17    25    26    1
    18    25    27    1
    19    28    29    1
    20    28    30    1
    21    31    32    1
    22    31    33    1
    23    34    35    1
    24    34    36    1
    25    37    38    1
    26    37    39    1
    27    40    41    1
    28    40    42    1
    29    43    44    1
    30    43    45    1
    31    46    47    1
    32    46    48    1
    33    49    50    1
    34    49    51    1
    35    52    53    1
    36    52    54    1
    37    55    56    1
    38    55    57    1
    39    58    59    1
    40    58    60    1
    41    61    62    1
    42    61    63    1
    43    64    65    1
    44    64    66    1
    45    67    68    1
    46    67    69    1
    47    70    71    1
    48    70    72    1
    49    73    74    1
    50    73    75    1
    51    76    77    1
    52    76    78    1
    53    79    80    1
    54    79    81    1
