@<TRIPOS>MOLECULE
*****
 75 50 0 0 0
SMALL
GASTEIGER

@<TRIPOS>ATOM
      1 O           0.7879    0.9970    0.3727 O.3     1  HOH1       -0.4105
      2 H           1.1484    1.6904   -0.2001 H       0  HOH0        0.2052
      3 H           1.2213    0.1879    0.0621 H       0  HOH0        0.2052
      4 O           1.4679    0.8558    3.5039 O.3     2  HOH2       -0.4105
      5 H           2.1797    1.4590    3.7655 H       0  HOH0        0.2052
      6 H           1.8420    0.3613    2.7592 H       0  HOH0        0.2052
      7 O           1.1493    0.7599    6.5513 O.3     3  HOH3       -0.4105
      8 H           1.7630    1.3759    6.9790 H       0  HOH0        0.2052
      9 H           1.7219    0.2005    6.0052 H       0  HOH0        0.2052
     10 O           0.5634    4.5895    0.0507 O.3     4  HOH4       -0.4105
     11 H           1.0236    5.4181    0.2522 H       0  HOH0        0.2052
     12 H           1.0315    4.2443   -0.7244 H       0  HOH0        0.2052
     13 O           1.0747    3.5954    2.6362 O.3     5  HOH5       -0.4105
     14 H           1.5549    4.4283    2.7572 H       0  HOH0        0.2052
     15 H           1.6062    3.1109    1.9868 H       0  HOH0        0.2052
     16 O           1.5837    3.9911    5.9400 O.3     6  HOH6       -0.4105
     17 H           1.9791    4.8581    5.7642 H       0  HOH0        0.2052
     18 H           1.8565    3.4515    5.1828 H       0  HOH0        0.2052
     19 O           1.3889    7.3022    3.2331 O.3     7  HOH7       -0.4105
     20 H           1.7659    8.1942    3.2008 H       0  HOH0        0.2052
     21 H           1.6727    6.8977    2.3995 H       0  HOH0        0.2052
     22 O           3.7292    0.7665    0.5445 O.3     8  HOH8       -0.4105
     23 H           3.5053    1.4419    1.2023 H       0  HOH0        0.2052
     24 H           3.9394    1.2763   -0.2523 H       0  HOH0        0.2052
     25 O           4.4313   -0.1394    3.5748 O.3     9  HOH9       -0.4105
     26 H           4.8590    0.7296    3.5451 H       0  HOH0        0.2052
     27 H           4.6786   -0.5509    2.7331 H       0  HOH0        0.2052
     28 O           4.2237    0.0538    7.1486 O.3    10  HOH10      -0.4105
     29 H           4.2589    0.9324    7.5557 H       0  HOH0        0.2052
     30 H           4.4725    0.2133    6.2257 H       0  HOH0        0.2052
     31 O           3.4523    3.9429    0.3943 O.3    11  HOH11      -0.4105
     32 H           3.5089    4.7936    0.8549 H       0  HOH0        0.2052
     33 H           3.7733    4.1384   -0.4988 H       0  HOH0        0.2052
     34 O           3.9032    3.2238    3.3703 O.3    12  HOH12      -0.4105
     35 H           4.0705    4.1202    3.6979 H       0  HOH0        0.2052
     36 H           4.5597    3.1052    2.6675 H       0  HOH0        0.2052
     37 O           4.3813    3.3314    6.3999 O.3    13  HOH13      -0.4105
     38 H           4.7772    4.2118    6.3154 H       0  HOH0        0.2052
     39 H           4.8808    2.7888    5.7713 H       0  HOH0        0.2052
     40 O           3.3636    7.5329    0.4330 O.3    14  HOH14      -0.4105
     41 H           3.4289    8.3146    1.0018 H       0  HOH0        0.2052
     42 H           3.7779    7.8122   -0.3972 H       0  HOH0        0.2052
     43 O           4.1564    6.6755    3.3596 O.3    15  HOH15      -0.4105
     44 H           4.3869    7.6124    3.4494 H       0  HOH0        0.2052
     45 H           4.5466    6.4188    2.5106 H       0  HOH0        0.2052
     46 O           4.3305    6.9981    6.6455 O.3    16  HOH16      -0.4105
     47 H           4.8321    7.6669    7.1355 H       0  HOH0        0.2052
     48 H           4.8883    6.8033    5.8775 H       0  HOH0        0.2052
     49 O           6.4775    0.4911    0.6666 O.3    17  HOH17      -0.4105
     50 H           6.2686    1.1950    1.2990 H       0  HOH0        0.2052
     51 H           6.6962    0.9665   -0.1489 H       0  HOH0        0.2052
     52 O           7.3026   -0.3743    3.8282 O.3    18  HOH18      -0.4105
     53 H           7.5638    0.5573    3.7761 H       0  HOH0        0.2052
     54 H           7.4822   -0.7178    2.9401 H       0  HOH0        0.2052
     55 O           7.2185    0.4814    6.6334 O.3    19  HOH19      -0.4105
     56 H           6.8889    1.1708    7.2293 H       0  HOH0        0.2052
     57 H           8.0653    0.8305    6.3173 H       0  HOH0        0.2052
     58 O           6.1372    3.7450    0.6411 O.3    20  HOH20      -0.4105
     59 H           6.3034    4.6617    0.9075 H       0  HOH0        0.2052
     60 H           6.6794    3.6303   -0.1538 H       0  HOH0        0.2052
     61 O           7.0957    3.0197    3.3354 O.3    21  HOH21      -0.4105
     62 H           6.9898    3.9728    3.4743 H       0  HOH0        0.2052
     63 H           7.6361    2.9586    2.5334 H       0  HOH0        0.2052
     64 O           7.3990    3.6438    6.6938 O.3    22  HOH22      -0.4105
     65 H           7.6270    4.5855    6.6971 H       0  HOH0        0.2052
     66 H           7.6272    3.3507    5.7989 H       0  HOH0        0.2052
     67 O           6.2029    7.3667    0.6068 O.3    23  HOH23      -0.4105
     68 H           6.1437    8.2031    1.0923 H       0  HOH0        0.2052
     69 H           6.6035    7.6153   -0.2397 H       0  HOH0        0.2052
     70 O           7.0039    6.5761    3.3162 O.3    24  HOH24      -0.4105
     71 H           7.1240    7.5367    3.3579 H       0  HOH0        0.2052
     72 H           7.5351    6.3067    2.5519 H       0  HOH0        0.2052
     73 O           7.4346    7.1560    6.5845 O.3    25  HOH25      -0.4105
     74 H           7.5410    8.1056    6.7456 H       0  HOH0        0.2052
     75 H           7.8593    7.0154    5.7249 H       0  HOH0        0.2052
@<TRIPOS>BOND
     1     1     2    1
     2     1     3    1
     3     4     5    1
     4     4     6    1
     5     7     8    1
     6     7     9    1
     7    10    11    1
     8    10    12    1
     9    13    14    1
    10    13    15    1
    11    16    17    1
    12    16    18    1
    13    19    20    1
    14    19    21    1
    15    22    23    1
    16    22    24    1
    17    25    26    1
    18    25    27    1
    19    28    29    1
    20    28    30    1
    21    31    32    1
    22    31    33    1
    23    34    35    1
    24    34    36    1
    25    37    38    1
    26    37    39    1
    27    40    41    1
    28    40    42    1
    29    43    44    1
    30    43    45    1
    31    46    47    1
    32    46    48    1
    33    49    50    1
    34    49    51    1
    35    52    53    1
    36    52    54    1
    37    55    56    1
    38    55    57    1
    39    58    59    1
    40    58    60    1
    41    61    62    1
    42    61    63    1
    43    64    65    1
    44    64    66    1
    45    67    68    1
    46    67    69    1
    47    70    71    1
    48    70    72    1
    49    73    74    1
    50    73    75    1
