@<TRIPOS>MOLECULE
*****
 112 98 0 0 0
SMALL
GASTEIGER

@<TRIPOS>ATOM
      1 CL          4.0448   -0.2089   -1.3516 Cl      1  UNL1       -0.1242
      2 CL          2.9591    2.8493   -0.7306 Cl      1  UNL1       -0.1242
      3 C           4.2873    0.6422    0.1929 C.3     1  UNL1        0.0360
      4 C           3.1361    1.5823    0.5072 C.3     1  UNL1        0.0360
      5 H           5.2358    1.1846    0.1292 H       1  UNL1        0.0441
      6 H           4.3801   -0.1171    0.9748 H       1  UNL1        0.0441
      7 H           3.3057    2.0814    1.4657 H       1  UNL1        0.0441
      8 H           2.1871    1.0404    0.5675 H       1  UNL1        0.0441
      9 CL          0.1872    3.4373    6.5977 Cl      2  UNL2       -0.1242
     10 CL          1.3020    2.0076    3.8352 Cl      2  UNL2       -0.1242
     11 C          -0.8630    2.8046    5.3071 C.3     2  UNL2        0.0360
     12 C          -0.2458    1.6013    4.6150 C.3     2  UNL2        0.0360
     13 H          -1.0471    3.6182    4.5984 H       2  UNL2        0.0441
     14 H          -1.8170    2.5292    5.7659 H       2  UNL2        0.0441
     15 H          -0.9170    1.2268    3.8366 H       2  UNL2        0.0441
     16 H          -0.0586    0.7891    5.3242 H       2  UNL2        0.0441
     17 CL         -0.1487    0.2485    9.2327 Cl      3  UNL3       -0.1242
     18 CL          2.4185   -1.4478   10.4368 Cl      3  UNL3       -0.1242
     19 C           0.4591    0.4059   10.8985 C.3     3  UNL3        0.0360
     20 C           1.9602    0.1857   10.9756 C.3     3  UNL3        0.0360
     21 H          -0.0799   -0.3164   11.5195 H       3  UNL3        0.0441
     22 H           0.2057    1.4115   11.2465 H       3  UNL3        0.0441
     23 H           2.3072    0.3004   12.0067 H       3  UNL3        0.0441
     24 H           2.4990    0.9058   10.3519 H       3  UNL3        0.0441
     25 CL          2.4142    5.4307    3.0529 Cl      4  UNL4       -0.1242
     26 CL         -0.4051    4.8989    1.4140 Cl      4  UNL4       -0.1242
     27 C           2.1029    5.9935    1.3930 C.3     4  UNL4        0.0360
     28 C           0.6362    6.3225    1.1734 C.3     4  UNL4        0.0360
     29 H           2.4404    5.2103    0.7068 H       4  UNL4        0.0441
     30 H           2.7191    6.8818    1.2268 H       4  UNL4        0.0441
     31 H           0.4766    6.6767    0.1508 H       4  UNL4        0.0441
     32 H           0.2978    7.1031    1.8618 H       4  UNL4        0.0441
     33 CL         -2.2413    6.3531    6.3105 Cl      5  UNL5       -0.1242
     34 CL          1.0001    6.9185    6.0082 Cl      5  UNL5       -0.1242
     35 C          -1.5401    7.6043    5.2562 C.3     5  UNL5        0.0360
     36 C          -0.1858    7.1880    4.7083 C.3     5  UNL5        0.0360
     37 H          -1.4650    8.5276    5.8392 H       5  UNL5        0.0441
     38 H          -2.2441    7.7746    4.4364 H       5  UNL5        0.0441
     39 H           0.2148    7.9689    4.0554 H       5  UNL5        0.0441
     40 H          -0.2604    6.2629    4.1282 H       5  UNL5        0.0441
     41 CL          1.6864    3.7336    9.9691 Cl      6  UNL6       -0.1242
     42 CL         -1.5163    4.4389   10.3724 Cl      6  UNL6       -0.1242
     43 C           0.9731    5.3383    9.6778 C.3     6  UNL6        0.0360
     44 C          -0.1986    5.6129   10.6049 C.3     6  UNL6        0.0360
     45 H           0.6663    5.3810    8.6280 H       6  UNL6        0.0441
     46 H           1.7612    6.0807    9.8336 H       6  UNL6        0.0441
     47 H          -0.6085    6.6086   10.4124 H       6  UNL6        0.0441
     48 H           0.1075    5.5667   11.6547 H       6  UNL6        0.0441
     49 CL         -0.7890    8.8482    8.6067 Cl      7  UNL7       -0.1242
     50 CL          1.2789    8.8481   11.1837 Cl      7  UNL7       -0.1242
     51 C          -0.4658   10.2703    9.6274 C.3     7  UNL7        0.0360
     52 C           0.9558   10.2703   10.1631 C.3     7  UNL7        0.0360
     53 H          -1.1964   10.2685   10.4424 H       7  UNL7        0.0441
     54 H          -0.6396   11.1599    9.0151 H       7  UNL7        0.0441
     55 H           1.1296   11.1599   10.7755 H       7  UNL7        0.0441
     56 H           1.6863   10.2686    9.3482 H       7  UNL7        0.0441
     57 CL          5.7514    3.6204    2.3056 Cl      8  UNL8       -0.1242
     58 CL          8.0700    1.3127    1.8409 Cl      8  UNL8       -0.1242
     59 C           5.8867    2.1320    3.2727 C.3     8  UNL8        0.0360
     60 C           7.3301    1.6811    3.4174 C.3     8  UNL8        0.0360
     61 H           5.2779    1.3628    2.7872 H       8  UNL8        0.0441
     62 H           5.4544    2.3393    4.2559 H       8  UNL8        0.0441
     63 H           7.3840    0.7732    4.0253 H       8  UNL8        0.0441
     64 H           7.9395    2.4517    3.8997 H       8  UNL8        0.0441
     65 CL          6.2901   -0.2299    6.9983 Cl      9  UNL9       -0.1242
     66 CL          3.1278    0.7234    7.0896 Cl      9  UNL9       -0.1242
     67 C           5.7570    1.4258    7.3767 C.3     9  UNL9        0.0360
     68 C           4.4153    1.4388    8.0892 C.3     9  UNL9        0.0360
     69 H           5.7118    1.9844    6.4365 H       9  UNL9        0.0441
     70 H           6.5252    1.8816    8.0080 H       9  UNL9        0.0441
     71 H           4.1190    2.4662    8.3198 H       9  UNL9        0.0441
     72 H           4.4595    0.8773    9.0276 H       9  UNL9        0.0441
     73 CL          7.8764    7.2340    1.1745 Cl     10  UNL10      -0.1242
     74 CL          5.1741    8.9575    1.9772 Cl     10  UNL10      -0.1242
     75 C           6.9886    7.0430    2.7055 C.3    10  UNL10       0.0360
     76 C           5.5011    7.2980    2.5320 C.3    10  UNL10       0.0360
     77 H           7.4268    7.7332    3.4332 H      10  UNL10       0.0441
     78 H           7.1589    6.0216    3.0582 H      10  UNL10       0.0441
     79 H           4.9800    7.1618    3.4841 H      10  UNL10       0.0441
     80 H           5.0636    6.6102    1.8018 H      10  UNL10       0.0441
     81 CL          3.6023    4.0453    5.8111 Cl     11  UNL11      -0.1242
     82 CL          4.2457    6.1161    8.3042 Cl     11  UNL11      -0.1242
     83 C           5.0685    5.0487    5.9225 C.3    11  UNL11       0.0360
     84 C           5.4960    5.2668    7.3638 C.3    11  UNL11       0.0360
     85 H           4.8601    5.9999    5.4227 H      11  UNL11       0.0441
     86 H           5.8592    4.5369    5.3664 H      11  UNL11       0.0441
     87 H           6.4044    5.8750    7.4014 H      11  UNL11       0.0441
     88 H           5.7010    4.3155    7.8646 H      11  UNL11       0.0441
     89 CL          9.3208    4.4519   11.2578 Cl     12  UNL12      -0.1242
     90 CL          6.0186    4.5366   11.1818 Cl     12  UNL12      -0.1242
     91 C           8.3736    5.4963   10.1711 C.3    12  UNL12       0.0360
     92 C           7.0619    5.9285   10.8039 C.3    12  UNL12       0.0360
     93 H           8.2023    4.9428    9.2426 H      12  UNL12       0.0441
     94 H           8.9881    6.3709    9.9387 H      12  UNL12       0.0441
     95 H           6.5075    6.5779   10.1201 H      12  UNL12       0.0441
     96 H           7.2331    6.4790   11.7342 H      12  UNL12       0.0441
     97 CL          3.2296    9.0701    4.8359 Cl     13  UNL13      -0.1242
     98 CL          5.5495   11.4161    5.0135 Cl     13  UNL13      -0.1242
     99 C           3.6711    9.9263    6.3328 C.3    13  UNL13       0.0360
    100 C           4.1099   11.3546    6.0586 C.3    13  UNL13       0.0360
    101 H           4.4660    9.3544    6.8217 H      13  UNL13       0.0441
    102 H           2.7938    9.9186    6.9860 H      13  UNL13       0.0441
    103 H           4.3628   11.8595    6.9955 H      13  UNL13       0.0441
    104 H           3.3162   11.9255    5.5666 H      13  UNL13       0.0441
    105 CL          4.6695    9.0815   11.6864 Cl     14  UNL14      -0.1242
    106 CL          6.2950   10.2098    9.0403 Cl     14  UNL14      -0.1242
    107 C           4.6354   10.7757   11.1412 C.3    14  UNL14       0.0360
    108 C           4.7581   10.8862    9.6311 C.3    14  UNL14       0.0360
    109 H           5.4509   11.3043   11.6448 H      14  UNL14       0.0441
    110 H           3.6889   11.2093   11.4768 H      14  UNL14       0.0441
    111 H           4.7218   11.9355    9.3240 H      14  UNL14       0.0441
    112 H           3.9446   10.3547    9.1275 H      14  UNL14       0.0441
@<TRIPOS>BOND
     1     1     3    1
     2     2     4    1
     3     3     4    1
     4     3     5    1
     5     3     6    1
     6     4     7    1
     7     4     8    1
     8     9    11    1
     9    10    12    1
    10    11    12    1
    11    11    13    1
    12    11    14    1
    13    12    15    1
    14    12    16    1
    15    17    19    1
    16    18    20    1
    17    19    20    1
    18    19    21    1
    19    19    22    1
    20    20    23    1
    21    20    24    1
    22    25    27    1
    23    26    28    1
    24    27    28    1
    25    27    29    1
    26    27    30    1
    27    28    31    1
    28    28    32    1
    29    33    35    1
    30    34    36    1
    31    35    36    1
    32    35    37    1
    33    35    38    1
    34    36    39    1
    35    36    40    1
    36    41    43    1
    37    42    44    1
    38    43    44    1
    39    43    45    1
    40    43    46    1
    41    44    47    1
    42    44    48    1
    43    49    51    1
    44    50    52    1
    45    51    52    1
    46    51    53    1
    47    51    54    1
    48    52    55    1
    49    52    56    1
    50    57    59    1
    51    58    60    1
    52    59    60    1
    53    59    61    1
    54    59    62    1
    55    60    63    1
    56    60    64    1
    57    65    67    1
    58    66    68    1
    59    67    68    1
    60    67    69    1
    61    67    70    1
    62    68    71    1
    63    68    72    1
    64    73    75    1
    65    74    76    1
    66    75    76    1
    67    75    77    1
    68    75    78    1
    69    76    79    1
    70    76    80    1
    71    81    83    1
    72    82    84    1
    73    83    84    1
    74    83    85    1
    75    83    86    1
    76    84    87    1
    77    84    88    1
    78    89    91    1
    79    90    92    1
    80    91    92    1
    81    91    93    1
    82    91    94    1
    83    92    95    1
    84    92    96    1
    85    97    99    1
    86    98   100    1
    87    99   100    1
    88    99   101    1
    89    99   102    1
    90   100   103    1
    91   100   104    1
    92   105   107    1
    93   106   108    1
    94   107   108    1
    95   107   109    1
    96   107   110    1
    97   108   111    1
    98   108   112    1
