@<TRIPOS>MOLECULE
*****
 120 105 0 0 0
SMALL
GASTEIGER

@<TRIPOS>ATOM
      1 CL          1.5542   -1.3962   -0.4821 Cl      1  UNL1       -0.1242
      2 CL          1.8843    1.7968   -1.2651 Cl      1  UNL1       -0.1242
      3 C           2.0517   -0.1323    0.6685 C.3     1  UNL1        0.0360
      4 C           1.4127    1.2079    0.3472 C.3     1  UNL1        0.0360
      5 H           3.1440   -0.0675    0.6406 H       1  UNL1        0.0441
      6 H           1.7549   -0.4633    1.6679 H       1  UNL1        0.0441
      7 H           1.7258    1.9611    1.0761 H       1  UNL1        0.0441
      8 H           0.3206    1.1422    0.3717 H       1  UNL1        0.0441
      9 CL         -1.1990   -0.1387    3.6291 Cl      2  UNL2       -0.1242
     10 CL          0.7782    1.6772    5.5553 Cl      2  UNL2       -0.1242
     11 C          -0.9067    1.6023    3.4004 C.3     2  UNL2        0.0360
     12 C           0.4954    2.0011    3.8280 C.3     2  UNL2        0.0360
     13 H          -1.6652    2.1455    3.9728 H       2  UNL2        0.0441
     14 H          -1.0563    1.8234    2.3396 H       2  UNL2        0.0441
     15 H           0.6508    3.0716    3.6651 H       2  UNL2        0.0441
     16 H           1.2538    1.4553    3.2580 H       2  UNL2        0.0441
     17 CL         -0.4270   -0.0805    8.5846 Cl      3  UNL3       -0.1242
     18 CL          0.9814   -0.9984   11.4291 Cl      3  UNL3       -0.1242
     19 C          -0.0268    1.0408    9.9080 C.3     3  UNL3        0.0360
     20 C           1.2091    0.5962   10.6714 C.3     3  UNL3        0.0360
     21 H          -0.8985    1.1031   10.5670 H       3  UNL3        0.0441
     22 H           0.1368    2.0270    9.4641 H       3  UNL3        0.0441
     23 H           1.4381    1.3088   11.4691 H       3  UNL3        0.0441
     24 H           2.0799    0.5305   10.0118 H       3  UNL3        0.0441
     25 CL          2.3297    6.5026   -1.2045 Cl      4  UNL4       -0.1242
     26 CL          1.0736    4.7071    1.2685 Cl      4  UNL4       -0.1242
     27 C           2.6493    6.8151    0.5186 C.3     4  UNL4        0.0360
     28 C           2.6486    5.5340    1.3350 C.3     4  UNL4        0.0360
     29 H           1.8873    7.5141    0.8774 H       4  UNL4        0.0441
     30 H           3.6237    7.3073    0.5874 H       4  UNL4        0.0441
     31 H           2.8593    5.7544    2.3856 H       4  UNL4        0.0441
     32 H           3.4082    4.8336    0.9740 H       4  UNL4        0.0441
     33 CL          2.6062    6.6195    5.9951 Cl      5  UNL5       -0.1242
     34 CL         -0.6935    6.6180    6.1665 Cl      5  UNL5       -0.1242
     35 C           1.5715    5.3418    5.3125 C.3     5  UNL5        0.0360
     36 C           0.2373    5.8896    4.8355 C.3     5  UNL5        0.0360
     37 H           1.4333    4.5775    6.0836 H       5  UNL5        0.0441
     38 H           2.1155    4.8902    4.4778 H       5  UNL5        0.0441
     39 H          -0.3717    5.0863    4.4105 H       5  UNL5        0.0441
     40 H           0.3756    6.6563    4.0669 H       5  UNL5        0.0441
     41 CL          2.3052    4.0742    9.8518 Cl      6  UNL6       -0.1242
     42 CL         -0.9241    4.5362   10.3765 Cl      6  UNL6       -0.1242
     43 C           1.4393    5.5843    9.4796 C.3     6  UNL6        0.0360
     44 C           0.2941    5.8323   10.4464 C.3     6  UNL6        0.0360
     45 H           1.0794    5.5165    8.4481 H       6  UNL6        0.0441
     46 H           2.1650    6.4008    9.5350 H       6  UNL6        0.0441
     47 H          -0.2113    6.7711   10.2019 H       6  UNL6        0.0441
     48 H           0.6535    5.8966   11.4782 H       6  UNL6        0.0441
     49 CL         -2.0210    9.9711    5.4253 Cl      7  UNL7       -0.1242
     50 CL          0.8180   11.6611    5.4615 Cl      7  UNL7       -0.1242
     51 C          -0.7260    9.7735    4.2200 C.3     7  UNL7        0.0360
     52 C           0.6483   10.0081    4.8232 C.3     7  UNL7        0.0360
     53 H          -0.9238   10.4721    3.4009 H       7  UNL7        0.0441
     54 H          -0.7976    8.7558    3.8255 H       7  UNL7        0.0441
     55 H           1.4238    9.8682    4.0645 H       7  UNL7        0.0441
     56 H           0.8447    9.3119    5.6445 H       7  UNL7        0.0441
     57 CL          0.9812    9.2042    8.5201 Cl      8  UNL8       -0.1242
     58 CL          2.3889    9.4672   11.4978 Cl      8  UNL8       -0.1242
     59 C           0.9887   10.6951    9.4928 C.3     8  UNL8        0.0360
     60 C           2.2445   10.8112   10.3397 C.3     8  UNL8        0.0360
     61 H           0.0892   10.6907   10.1164 H       8  UNL8        0.0441
     62 H           0.9198   11.5390    8.8002 H       8  UNL8        0.0441
     63 H           2.2278   11.7407   10.9162 H       8  UNL8        0.0441
     64 H           3.1441   10.8122    9.7164 H       8  UNL8        0.0441
     65 CL          5.4309    0.8250   -1.0887 Cl      9  UNL9       -0.1242
     66 CL          8.5383    1.8463   -1.5561 Cl      9  UNL9       -0.1242
     67 C           6.8112    0.3134   -0.0878 C.3     9  UNL9        0.0360
     68 C           7.8600    1.4061    0.0297 C.3     9  UNL9        0.0360
     69 H           7.2309   -0.5922   -0.5369 H       9  UNL9        0.0441
     70 H           6.4214    0.0549    0.9010 H       9  UNL9        0.0441
     71 H           8.6889    1.0692    0.6590 H       9  UNL9        0.0441
     72 H           7.4394    2.3128    0.4756 H       9  UNL9        0.0441
     73 CL          6.2671   -0.4374    7.5404 Cl     10  UNL10      -0.1242
     74 CL          2.9772   -0.1472    7.4428 Cl     10  UNL10      -0.1242
     75 C           5.4035    0.8409    6.6522 C.3    10  UNL10       0.0360
     76 C           4.1041    1.2268    7.3381 C.3    10  UNL10       0.0360
     77 H           5.2224    0.4766    5.6361 H      10  UNL10       0.0441
     78 H           6.0706    1.7057    6.5910 H      10  UNL10       0.0441
     79 H           3.6018    2.0211    6.7782 H      10  UNL10       0.0441
     80 H           4.2849    1.5878    8.3553 H      10  UNL10       0.0441
     81 CL          7.6768    7.3467    0.4366 Cl     11  UNL11      -0.1242
     82 CL          5.6800    5.6337   -1.5623 Cl     11  UNL11      -0.1242
     83 C           6.6356    6.0068    0.9746 C.3    11  UNL11       0.0360
     84 C           6.4575    4.9585   -0.1104 C.3    11  UNL11       0.0360
     85 H           5.6734    6.4327    1.2759 H      11  UNL11       0.0441
     86 H           7.1035    5.5620    1.8576 H      11  UNL11       0.0441
     87 H           5.8247    4.1428    0.2514 H      11  UNL11       0.0441
     88 H           7.4200    4.5351   -0.4141 H      11  UNL11       0.0441
     89 CL          4.5077    1.5302    2.5568 Cl     12  UNL12      -0.1242
     90 CL          6.3227    3.5857    4.4003 Cl     12  UNL12      -0.1242
     91 C           3.8431    2.9150    3.4566 C.3    12  UNL12       0.0360
     92 C           4.8362    4.0613    3.5442 C.3    12  UNL12       0.0360
     93 H           3.5587    2.5600    4.4521 H      12  UNL12       0.0441
     94 H           2.9363    3.2386    2.9376 H      12  UNL12       0.0441
     95 H           4.3974    4.9014    4.0905 H      12  UNL12       0.0441
     96 H           5.1232    4.4139    2.5487 H      12  UNL12       0.0441
     97 CL          4.8689    4.5426   11.7617 Cl     13  UNL13      -0.1242
     98 CL          6.8631    4.0391    9.1757 Cl     13  UNL13      -0.1242
     99 C           5.9618    5.7761   11.0885 C.3    13  UNL13       0.0360
    100 C           6.1425    5.6135    9.5890 C.3    13  UNL13       0.0360
    101 H           6.9186    5.6961   11.6140 H      13  UNL13       0.0441
    102 H           5.5295    6.7554   11.3137 H      13  UNL13       0.0441
    103 H           6.8076    6.3906    9.2013 H      13  UNL13       0.0441
    104 H           5.1853    5.6901    9.0639 H      13  UNL13       0.0441
    105 CL          8.7376   10.8546    2.2367 Cl     14  UNL14      -0.1242
    106 CL          5.5702   10.0325    1.7796 Cl     14  UNL14      -0.1242
    107 C           7.7468   11.4194    0.8699 C.3    14  UNL14       0.0360
    108 C           6.2863   11.5763    1.2572 C.3    14  UNL14       0.0360
    109 H           7.8652   10.7005    0.0530 H      14  UNL14       0.0441
    110 H           8.1567   12.3791    0.5421 H      14  UNL14       0.0441
    111 H           5.7046   11.9354    0.4032 H      14  UNL14       0.0441
    112 H           6.1683   12.2925    2.0763 H      14  UNL14       0.0441
    113 CL          8.4375    8.6653   10.6037 Cl     15  UNL15      -0.1242
    114 CL          5.3220    8.8680    9.5219 Cl     15  UNL15      -0.1242
    115 C           7.5733   10.1973   10.3301 C.3    15  UNL15       0.0360
    116 C           6.0844   10.0623   10.5994 C.3    15  UNL15       0.0360
    117 H           7.7628   10.5070    9.2975 H      15  UNL15       0.0441
    118 H           8.0123   10.9451   10.9968 H      15  UNL15       0.0441
    119 H           5.5816   11.0200   10.4356 H      15  UNL15       0.0441
    120 H           5.8950    9.7493   11.6309 H      15  UNL15       0.0441
@<TRIPOS>BOND
     1     1     3    1
     2     2     4    1
     3     3     4    1
     4     3     5    1
     5     3     6    1
     6     4     7    1
     7     4     8    1
     8     9    11    1
     9    10    12    1
    10    11    12    1
    11    11    13    1
    12    11    14    1
    13    12    15    1
    14    12    16    1
    15    17    19    1
    16    18    20    1
    17    19    20    1
    18    19    21    1
    19    19    22    1
    20    20    23    1
    21    20    24    1
    22    25    27    1
    23    26    28    1
    24    27    28    1
    25    27    29    1
    26    27    30    1
    27    28    31    1
    28    28    32    1
    29    33    35    1
    30    34    36    1
    31    35    36    1
    32    35    37    1
    33    35    38    1
    34    36    39    1
    35    36    40    1
    36    41    43    1
    37    42    44    1
    38    43    44    1
    39    43    45    1
    40    43    46    1
    41    44    47    1
    42    44    48    1
    43    49    51    1
    44    50    52    1
    45    51    52    1
    46    51    53    1
    47    51    54    1
    48    52    55    1
    49    52    56    1
    50    57    59    1
    51    58    60    1
    52    59    60    1
    53    59    61    1
    54    59    62    1
    55    60    63    1
    56    60    64    1
    57    65    67    1
    58    66    68    1
    59    67    68    1
    60    67    69    1
    61    67    70    1
    62    68    71    1
    63    68    72    1
    64    73    75    1
    65    74    76    1
    66    75    76    1
    67    75    77    1
    68    75    78    1
    69    76    79    1
    70    76    80    1
    71    81    83    1
    72    82    84    1
    73    83    84    1
    74    83    85    1
    75    83    86    1
    76    84    87    1
    77    84    88    1
    78    89    91    1
    79    90    92    1
    80    91    92    1
    81    91    93    1
    82    91    94    1
    83    92    95    1
    84    92    96    1
    85    97    99    1
    86    98   100    1
    87    99   100    1
    88    99   101    1
    89    99   102    1
    90   100   103    1
    91   100   104    1
    92   105   107    1
    93   106   108    1
    94   107   108    1
    95   107   109    1
    96   107   110    1
    97   108   111    1
    98   108   112    1
    99   113   115    1
   100   114   116    1
   101   115   116    1
   102   115   117    1
   103   115   118    1
   104   116   119    1
   105   116   120    1
