@<TRIPOS>MOLECULE
*****
 128 112 0 0 0
SMALL
GASTEIGER

@<TRIPOS>ATOM
      1 CL          1.8205   -0.9520   -0.4313 Cl      1  UNL1       -0.1242
      2 CL          2.0051    1.5019    1.7737 Cl      1  UNL1       -0.1242
      3 C           3.3472   -0.2992    0.2105 C.3     1  UNL1        0.0360
      4 C           3.1969    0.1862    1.6422 C.3     1  UNL1        0.0360
      5 H           3.6673    0.5117   -0.4513 H       1  UNL1        0.0441
      6 H           4.0932   -1.0975    0.1578 H       1  UNL1        0.0441
      7 H           4.1515    0.5699    2.0141 H       1  UNL1        0.0441
      8 H           2.8736   -0.6238    2.3033 H       1  UNL1        0.0441
      9 CL          1.5199    2.7635    4.8887 Cl      2  UNL2       -0.1242
     10 CL          0.0063   -0.1618    4.6257 Cl      2  UNL2       -0.1242
     11 C           0.0225    2.3332    5.7496 C.3     2  UNL2        0.0360
     12 C          -0.0299    0.8531    6.0877 C.3     2  UNL2        0.0360
     13 H          -0.8215    2.6252    5.1168 H       2  UNL2        0.0441
     14 H          -0.0135    2.9319    6.6644 H       2  UNL2        0.0441
     15 H          -0.9532    0.6201    6.6261 H       2  UNL2        0.0441
     16 H           0.8159    0.5603    6.7177 H       2  UNL2        0.0441
     17 CL          0.5823   -1.4301   10.2202 Cl      3  UNL3       -0.1242
     18 CL         -1.3891    1.0893    9.3934 Cl      3  UNL3       -0.1242
     19 C           1.1488    0.2374    9.9606 C.3     3  UNL3        0.0360
     20 C           0.0976    1.2598   10.3574 C.3     3  UNL3        0.0360
     21 H           1.4197    0.3367    8.9048 H       3  UNL3        0.0441
     22 H           2.0541    0.3732   10.5595 H       3  UNL3        0.0441
     23 H           0.4768    2.2736   10.1992 H       3  UNL3        0.0441
     24 H          -0.1757    1.1582   11.4123 H       3  UNL3        0.0441
     25 CL          2.9320    7.7275    2.0650 Cl      4  UNL4       -0.1242
     26 CL          2.8977    6.7800   -1.1002 Cl      4  UNL4       -0.1242
     27 C           1.8556    6.4694    1.4110 C.3     4  UNL4        0.0360
     28 C           2.5042    5.7096    0.2666 C.3     4  UNL4        0.0360
     29 H           0.9302    6.9571    1.0888 H       4  UNL4        0.0441
     30 H           1.6140    5.7861    2.2303 H       4  UNL4        0.0441
     31 H           1.8264    4.9364   -0.1067 H       4  UNL4        0.0441
     32 H           3.4313    5.2248    0.5879 H       4  UNL4        0.0441
     33 CL          2.4264    7.3804    6.2669 Cl      5  UNL5       -0.1242
     34 CL         -0.8732    7.5544    6.2527 Cl      5  UNL5       -0.1242
     35 C           1.3742    6.3096    5.3103 C.3     5  UNL5        0.0360
     36 C           0.1040    7.0146    4.8661 C.3     5  UNL5        0.0360
     37 H           1.1466    5.4317    5.9232 H       5  UNL5        0.0441
     38 H           1.9477    5.9786    4.4396 H       5  UNL5        0.0441
     39 H          -0.5164    6.3381    4.2711 H       5  UNL5        0.0441
     40 H           0.3317    7.8944    4.2562 H       5  UNL5        0.0441
     41 CL          1.6873    4.4585    8.4815 Cl      6  UNL6       -0.1242
     42 CL         -1.3891    4.5381    9.6843 Cl      6  UNL6       -0.1242
     43 C           1.0393    5.7827    9.4792 C.3     6  UNL6        0.0360
     44 C           0.0152    5.2842   10.4843 C.3     6  UNL6        0.0360
     45 H           0.6031    6.5258    8.8042 H       6  UNL6        0.0441
     46 H           1.8837    6.2464    9.9974 H       6  UNL6        0.0441
     47 H          -0.3561    6.1155   11.0907 H       6  UNL6        0.0441
     48 H           0.4505    4.5386   11.1570 H       6  UNL6        0.0441
     49 CL          0.1832   10.6620   -1.5657 Cl      7  UNL7       -0.1242
     50 CL          1.5556   11.6809    1.2619 Cl      7  UNL7       -0.1242
     51 C           0.6131    9.5811   -0.2182 C.3     7  UNL7        0.0360
     52 C           0.4751   10.2727    1.1273 C.3     7  UNL7        0.0360
     53 H           1.6384    9.2351   -0.3827 H       7  UNL7        0.0441
     54 H          -0.0520    8.7141   -0.2682 H       7  UNL7        0.0441
     55 H           0.7333    9.5826    1.9359 H       7  UNL7        0.0441
     56 H          -0.5492   10.6218    1.2902 H       7  UNL7        0.0441
     57 CL         -0.1565   10.0601    8.4225 Cl      8  UNL8       -0.1242
     58 CL          1.1405    9.0525   11.2896 Cl      8  UNL8       -0.1242
     59 C           1.0949   10.9525    9.3207 C.3     8  UNL8        0.0360
     60 C           2.0206   10.0176   10.0802 C.3     8  UNL8        0.0360
     61 H           0.5876   11.6455    9.9993 H       8  UNL8        0.0441
     62 H           1.6634   11.5406    8.5944 H       8  UNL8        0.0441
     63 H           2.7854   10.5914   10.6117 H       8  UNL8        0.0441
     64 H           2.5252    9.3224    9.4020 H       8  UNL8        0.0441
     65 CL          6.5371    0.6251   -1.3825 Cl      9  UNL9       -0.1242
     66 CL          9.6856    0.7870   -0.3936 Cl      9  UNL9       -0.1242
     67 C           7.0706    0.3706    0.2966 C.3     9  UNL9        0.0360
     68 C           8.2937    1.2060    0.6339 C.3     9  UNL9        0.0360
     69 H           7.2728   -0.6976    0.4238 H       9  UNL9        0.0441
     70 H           6.2360    0.6402    0.9504 H       9  UNL9        0.0441
     71 H           8.5913    1.0392    1.6733 H       9  UNL9        0.0441
     72 H           8.0926    2.2738    0.5034 H       9  UNL9        0.0441
     73 CL          6.3832    0.1533    6.4398 Cl     10  UNL10      -0.1242
     74 CL          3.3619   -0.8801    7.2889 Cl     10  UNL10      -0.1242
     75 C           4.9024    1.1188    6.2308 C.3    10  UNL10       0.0360
     76 C           3.8776    0.8235    7.3126 C.3    10  UNL10       0.0360
     77 H           4.5014    0.9029    5.2355 H      10  UNL10       0.0441
     78 H           5.1914    2.1734    6.2609 H      10  UNL10       0.0441
     79 H           2.9848    1.4386    7.1665 H      10  UNL10       0.0441
     80 H           4.2796    1.0362    8.3080 H      10  UNL10       0.0441
     81 CL          7.7103   -0.2003   11.1948 Cl     11  UNL11      -0.1242
     82 CL          4.6757   -1.3055   10.4965 Cl     11  UNL11      -0.1242
     83 C           6.3777    0.8335   10.6252 C.3    11  UNL11       0.0360
     84 C           5.0270    0.3301   11.1049 C.3    11  UNL11       0.0360
     85 H           6.4237    0.8644    9.5321 H      11  UNL11       0.0441
     86 H           6.5613    1.8434   11.0034 H      11  UNL11       0.0441
     87 H           4.2296    0.9900   10.7511 H      11  UNL11       0.0441
     88 H           4.9822    0.2959   12.1979 H      11  UNL11       0.0441
     89 CL          7.7674    7.1154   -0.6420 Cl     12  UNL12      -0.1242
     90 CL          5.7727    4.8176   -1.9299 Cl     12  UNL12      -0.1242
     91 C           6.5292    6.2348    0.2854 C.3    12  UNL12       0.0360
     92 C           6.3279    4.8232   -0.2386 C.3    12  UNL12       0.0360
     93 H           5.6010    6.8126    0.2344 H      12  UNL12       0.0441
     94 H           6.8579    6.2081    1.3284 H      12  UNL12       0.0441
     95 H           5.5720    4.3026    0.3565 H      12  UNL12       0.0441
     96 H           7.2569    4.2465   -0.1909 H      12  UNL12       0.0441
     97 CL          6.6274    2.7983    3.2674 Cl     13  UNL13      -0.1242
     98 CL          4.9952    5.0875    5.0032 Cl     13  UNL13      -0.1242
     99 C           4.9064    3.1889    3.0344 C.3    13  UNL13       0.0360
    100 C           4.6153    4.6524    3.3194 C.3    13  UNL13       0.0360
    101 H           4.3243    2.5340    3.6904 H      13  UNL13       0.0441
    102 H           4.6525    2.9473    1.9982 H      13  UNL13       0.0441
    103 H           3.5549    4.8662    3.1566 H      13  UNL13       0.0441
    104 H           5.1999    5.3073    2.6659 H      13  UNL13       0.0441
    105 CL          3.8667    3.7435   10.9437 Cl     14  UNL14      -0.1242
    106 CL          6.3991    4.0005    8.8370 Cl     14  UNL14      -0.1242
    107 C           4.9492    5.1536   10.8510 C.3    14  UNL14       0.0360
    108 C           5.4559    5.3854    9.4378 C.3    14  UNL14       0.0360
    109 H           5.7775    4.9841   11.5462 H      14  UNL14       0.0441
    110 H           4.3847    6.0238   11.1983 H      14  UNL14       0.0441
    111 H           6.1075    6.2636    9.4084 H      14  UNL14       0.0441
    112 H           4.6275    5.5514    8.7421 H      14  UNL14       0.0441
    113 CL          6.5606   10.0628    6.0910 Cl     15  UNL15      -0.1242
    114 CL          3.3114   10.6225    6.3087 Cl     15  UNL15      -0.1242
    115 C           5.8433   11.4830    6.8896 C.3    15  UNL15       0.0360
    116 C           4.5001   11.1584    7.5205 C.3    15  UNL15       0.0360
    117 H           5.7480   12.2743    6.1395 H      15  UNL15       0.0441
    118 H           6.5490   11.8206    7.6541 H      15  UNL15       0.0441
    119 H           4.0894   12.0443    8.0135 H      15  UNL15       0.0441
    120 H           4.5949   10.3647    8.2681 H      15  UNL15       0.0441
    121 CL          8.5886    9.0593   11.0104 Cl     16  UNL16      -0.1242
    122 CL          5.2959    8.9601   10.7539 Cl     16  UNL16      -0.1242
    123 C           7.6258   10.2170   10.0609 C.3    16  UNL16       0.0360
    124 C           6.2585   10.4556   10.6784 C.3    16  UNL16       0.0360
    125 H           7.5379    9.8222    9.0438 H      16  UNL16       0.0441
    126 H           8.1895   11.1534   10.0161 H      16  UNL16       0.0441
    127 H           5.6947   11.1789   10.0821 H      16  UNL16       0.0441
    128 H           6.3464   10.8471   11.6966 H      16  UNL16       0.0441
@<TRIPOS>BOND
     1     1     3    1
     2     2     4    1
     3     3     4    1
     4     3     5    1
     5     3     6    1
     6     4     7    1
     7     4     8    1
     8     9    11    1
     9    10    12    1
    10    11    12    1
    11    11    13    1
    12    11    14    1
    13    12    15    1
    14    12    16    1
    15    17    19    1
    16    18    20    1
    17    19    20    1
    18    19    21    1
    19    19    22    1
    20    20    23    1
    21    20    24    1
    22    25    27    1
    23    26    28    1
    24    27    28    1
    25    27    29    1
    26    27    30    1
    27    28    31    1
    28    28    32    1
    29    33    35    1
    30    34    36    1
    31    35    36    1
    32    35    37    1
    33    35    38    1
    34    36    39    1
    35    36    40    1
    36    41    43    1
    37    42    44    1
    38    43    44    1
    39    43    45    1
    40    43    46    1
    41    44    47    1
    42    44    48    1
    43    49    51    1
    44    50    52    1
    45    51    52    1
    46    51    53    1
    47    51    54    1
    48    52    55    1
    49    52    56    1
    50    57    59    1
    51    58    60    1
    52    59    60    1
    53    59    61    1
    54    59    62    1
    55    60    63    1
    56    60    64    1
    57    65    67    1
    58    66    68    1
    59    67    68    1
    60    67    69    1
    61    67    70    1
    62    68    71    1
    63    68    72    1
    64    73    75    1
    65    74    76    1
    66    75    76    1
    67    75    77    1
    68    75    78    1
    69    76    79    1
    70    76    80    1
    71    81    83    1
    72    82    84    1
    73    83    84    1
    74    83    85    1
    75    83    86    1
    76    84    87    1
    77    84    88    1
    78    89    91    1
    79    90    92    1
    80    91    92    1
    81    91    93    1
    82    91    94    1
    83    92    95    1
    84    92    96    1
    85    97    99    1
    86    98   100    1
    87    99   100    1
    88    99   101    1
    89    99   102    1
    90   100   103    1
    91   100   104    1
    92   105   107    1
    93   106   108    1
    94   107   108    1
    95   107   109    1
    96   107   110    1
    97   108   111    1
    98   108   112    1
    99   113   115    1
   100   114   116    1
   101   115   116    1
   102   115   117    1
   103   115   118    1
   104   116   119    1
   105   116   120    1
   106   121   123    1
   107   122   124    1
   108   123   124    1
   109   123   125    1
   110   123   126    1
   111   124   127    1
   112   124   128    1
