@<TRIPOS>MOLECULE
*****
 136 119 0 0 0
SMALL
GASTEIGER

@<TRIPOS>ATOM
      1 CL          2.5310   -1.4746    1.4307 Cl      1  UNL1       -0.1242
      2 CL          2.1495    1.7107    0.6394 Cl      1  UNL1       -0.1242
      3 C           3.8700   -0.3888    0.9867 C.3     1  UNL1        0.0360
      4 C           3.6038    1.0430    1.4190 C.3     1  UNL1        0.0360
      5 H           4.0085   -0.4564   -0.0970 H       1  UNL1        0.0441
      6 H           4.7744   -0.7685    1.4707 H       1  UNL1        0.0441
      7 H           4.4467    1.6842    1.1449 H       1  UNL1        0.0441
      8 H           3.4619    1.1100    2.5021 H       1  UNL1        0.0441
      9 CL          1.5800    2.5540    4.4397 Cl      2  UNL2       -0.1242
     10 CL          0.2426   -0.4033    5.0586 Cl      2  UNL2       -0.1242
     11 C           0.1075    2.3073    5.4091 C.3     2  UNL2        0.0360
     12 C           0.1415    0.9890    6.1632 C.3     2  UNL2        0.0360
     13 H          -0.7500    2.3537    4.7304 H       2  UNL2        0.0441
     14 H           0.0330    3.1430    6.1109 H       2  UNL2        0.0441
     15 H          -0.7684    0.8699    6.7587 H       2  UNL2        0.0441
     16 H           1.0008    0.9412    6.8393 H       2  UNL2        0.0441
     17 CL          0.5643   -1.2877   10.1504 Cl      3  UNL3       -0.1242
     18 CL         -1.3889    1.3320    9.6602 Cl      3  UNL3       -0.1242
     19 C           1.1447    0.3943   10.0965 C.3     3  UNL3        0.0360
     20 C           0.1059    1.3680   10.6261 C.3     3  UNL3        0.0360
     21 H           1.4092    0.6225    9.0592 H       3  UNL3        0.0441
     22 H           2.0552    0.4466   10.7004 H       3  UNL3        0.0441
     23 H           0.4935    2.3904   10.5927 H       3  UNL3        0.0441
     24 H          -0.1612    1.1378   11.6622 H       3  UNL3        0.0441
     25 CL          2.8372    7.8780    2.2953 Cl      4  UNL4       -0.1242
     26 CL          3.3030    7.2770   -0.9202 Cl      4  UNL4       -0.1242
     27 C           2.0370    6.5646    1.3989 C.3     4  UNL4        0.0360
     28 C           2.9156    6.0242    0.2837 C.3     4  UNL4        0.0360
     29 H           1.0935    6.9561    1.0058 H       4  UNL4        0.0441
     30 H           1.8052    5.7718    2.1161 H       4  UNL4        0.0441
     31 H           2.4045    5.2118   -0.2411 H       4  UNL4        0.0441
     32 H           3.8605    5.6359    0.6764 H       4  UNL4        0.0441
     33 CL          1.9983    7.1559    6.3064 Cl      5  UNL5       -0.1242
     34 CL         -1.3012    7.3305    6.3128 Cl      5  UNL5       -0.1242
     35 C           0.9462    6.2051    5.2304 C.3     5  UNL5        0.0360
     36 C          -0.3240    6.9576    4.8724 C.3     5  UNL5        0.0360
     37 H           0.7186    5.2613    5.7357 H       5  UNL5        0.0441
     38 H           1.5196    5.9790    4.3268 H       5  UNL5        0.0441
     39 H          -0.9444    6.3557    4.2019 H       5  UNL5        0.0441
     40 H          -0.0963    7.9030    4.3702 H       5  UNL5        0.0441
     41 CL          1.3591    4.5719    8.4211 Cl      6  UNL6       -0.1242
     42 CL         -1.4868    4.7922   10.0854 Cl      6  UNL6       -0.1242
     43 C           0.9719    5.8767    9.5684 C.3     6  UNL6        0.0360
     44 C           0.0748    5.3917   10.6943 C.3     6  UNL6        0.0360
     45 H           0.4977    6.6863    9.0047 H       6  UNL6        0.0441
     46 H           1.9176    6.2500    9.9719 H       6  UNL6        0.0441
     47 H          -0.1362    6.2096   11.3894 H       6  UNL6        0.0441
     48 H           0.5475    4.5798   11.2558 H       6  UNL6        0.0441
     49 CL          0.4891   10.9599   -1.3548 Cl      7  UNL7       -0.1242
     50 CL          1.5293   11.9374    1.6252 Cl      7  UNL7       -0.1242
     51 C           0.7707    9.8587    0.0152 C.3     7  UNL7        0.0360
     52 C           0.4785   10.5276    1.3474 C.3     7  UNL7        0.0360
     53 H           1.8098    9.5191   -0.0383 H       7  UNL7        0.0441
     54 H           0.1201    8.9902   -0.1231 H       7  UNL7        0.0441
     55 H           0.6478    9.8253    2.1689 H       7  UNL7        0.0441
     56 H          -0.5596   10.8702    1.3996 H       7  UNL7        0.0441
     57 CL         -2.0374   11.3348    5.6701 Cl      8  UNL8       -0.1242
     58 CL          1.1389   12.2130    5.9098 Cl      8  UNL8       -0.1242
     59 C          -0.7677   10.8074    4.5394 C.3     8  UNL8        0.0360
     60 C           0.5793   10.6669    5.2276 C.3     8  UNL8        0.0360
     61 H          -0.7224   11.5374    3.7251 H       8  UNL8        0.0441
     62 H          -1.0804    9.8469    4.1198 H       8  UNL8        0.0441
     63 H           1.3363   10.3305    4.5131 H       8  UNL8        0.0441
     64 H           0.5332    9.9396    6.0441 H       8  UNL8        0.0441
     65 CL         -0.2167   10.0009    8.7128 Cl      9  UNL9       -0.1242
     66 CL          1.1846    8.9189   11.5026 Cl      9  UNL9       -0.1242
     67 C           1.1352   10.8182    9.5332 C.3     9  UNL9        0.0360
     68 C           2.0474    9.8306   10.2405 C.3     9  UNL9        0.0360
     69 H           0.7101   11.5398   10.2379 H       9  UNL9        0.0441
     70 H           1.6938   11.3719    8.7729 H       9  UNL9        0.0441
     71 H           2.8743   10.3585   10.7244 H       9  UNL9        0.0441
     72 H           2.4698    9.1069    9.5364 H       9  UNL9        0.0441
     73 CL          5.9151    1.8481   -1.5152 Cl     10  UNL10      -0.1242
     74 CL          9.1828    1.4734   -1.8299 Cl     10  UNL10      -0.1242
     75 C           6.9240    0.9018   -0.3947 C.3    10  UNL10       0.0360
     76 C           8.3241    1.4781   -0.2706 C.3    10  UNL10       0.0360
     77 H           6.9509   -0.1294   -0.7605 H      10  UNL10       0.0441
     78 H           6.4253    0.9058    0.5788 H      10  UNL10       0.0441
     79 H           8.9167    0.8851    0.4321 H      10  UNL10       0.0441
     80 H           8.2970    2.5104    0.0919 H      10  UNL10       0.0441
     81 CL          6.4549    0.3991    6.4429 Cl     11  UNL11      -0.1242
     82 CL          3.4335   -0.6343    7.2920 Cl     11  UNL11      -0.1242
     83 C           4.9740    1.3646    6.2339 C.3    11  UNL11       0.0360
     84 C           3.9492    1.0692    7.3157 C.3    11  UNL11       0.0360
     85 H           4.5731    1.1486    5.2386 H      11  UNL11       0.0441
     86 H           5.2631    2.4191    6.2640 H      11  UNL11       0.0441
     87 H           3.0565    1.6843    7.1696 H      11  UNL11       0.0441
     88 H           4.3513    1.2819    8.3111 H      11  UNL11       0.0441
     89 CL          7.6632   -0.1284   11.1530 Cl     12  UNL12      -0.1242
     90 CL          4.6286   -1.2729   10.5211 Cl     12  UNL12      -0.1242
     91 C           6.3306    0.8700   10.5236 C.3    12  UNL12       0.0360
     92 C           4.9799    0.3958   11.0320 C.3    12  UNL12       0.0360
     93 H           6.3766    0.8365    9.4305 H      12  UNL12       0.0441
     94 H           6.5142    1.9004   10.8415 H      12  UNL12       0.0441
     95 H           4.1825    1.0337   10.6399 H      12  UNL12       0.0441
     96 H           4.9351    0.4260   12.1251 H      12  UNL12       0.0441
     97 CL          8.1626    7.5517    0.1143 Cl     13  UNL13      -0.1242
     98 CL          6.4295    5.7164   -2.0177 Cl     13  UNL13      -0.1242
     99 C           6.8013    6.5022    0.5771 C.3    13  UNL13       0.0360
    100 C           6.7040    5.2763   -0.3148 C.3    13  UNL13       0.0360
    101 H           5.8868    7.1016    0.5280 H      13  UNL13       0.0441
    102 H           6.9573    6.2021    1.6173 H      13  UNL13       0.0441
    103 H           5.8681    4.6447   -0.0004 H      13  UNL13       0.0441
    104 H           7.6198    4.6788   -0.2684 H      13  UNL13       0.0441
    105 CL          6.5287    3.4337    2.7024 Cl     14  UNL14      -0.1242
    106 CL          5.8638    5.7229    4.9903 Cl     14  UNL14      -0.1242
    107 C           4.8898    3.8243    3.2771 C.3    14  UNL14       0.0360
    108 C           4.7600    5.2878    3.6633 C.3    14  UNL14       0.0360
    109 H           4.6694    3.1694    4.1260 H      14  UNL14       0.0441
    110 H           4.1927    3.5827    2.4695 H      14  UNL14       0.0441
    111 H           3.7415    5.5016    4.0002 H      14  UNL14       0.0441
    112 H           4.9837    5.9427    2.8154 H      14  UNL14       0.0441
    113 CL          3.5773    3.7701   11.0862 Cl     15  UNL15      -0.1242
    114 CL          5.8442    4.0271    8.6961 Cl     15  UNL15      -0.1242
    115 C           4.6414    5.1802   10.8668 C.3    15  UNL15       0.0360
    116 C           4.9782    5.4120    9.4038 C.3    15  UNL15       0.0360
    117 H           5.5457    5.0108   11.4597 H      15  UNL15       0.0441
    118 H           4.1216    6.0504   11.2781 H      15  UNL15       0.0441
    119 H           5.6218    6.2902    9.2979 H      15  UNL15       0.0441
    120 H           4.0737    5.5780    8.8104 H      15  UNL15       0.0441
    121 CL          7.1172   11.1853    6.2095 Cl     16  UNL16      -0.1242
    122 CL          4.0886    9.8767    6.0278 Cl     16  UNL16      -0.1242
    123 C           5.7503   11.6854    7.2345 C.3    16  UNL16       0.0360
    124 C           4.8058   10.5304    7.5202 C.3    16  UNL16       0.0360
    125 H           5.2328   12.5036    6.7239 H      16  UNL16       0.0441
    126 H           6.1659   12.0744    8.1686 H      16  UNL16       0.0441
    127 H           3.9838   10.8630    8.1608 H      16  UNL16       0.0441
    128 H           5.3241    9.7108    8.0276 H      16  UNL16       0.0441
    129 CL          8.6879    8.9037   11.1138 Cl     17  UNL17      -0.1242
    130 CL          5.3952    8.8045   10.8573 Cl     17  UNL17      -0.1242
    131 C           7.7251   10.0614   10.1643 C.3    17  UNL17       0.0360
    132 C           6.3578   10.2999   10.7818 C.3    17  UNL17       0.0360
    133 H           7.6372    9.6666    9.1473 H      17  UNL17       0.0441
    134 H           8.2888   10.9977   10.1195 H      17  UNL17       0.0441
    135 H           5.7940   11.0233   10.1855 H      17  UNL17       0.0441
    136 H           6.4457   10.6915   11.8001 H      17  UNL17       0.0441
@<TRIPOS>BOND
     1     1     3    1
     2     2     4    1
     3     3     4    1
     4     3     5    1
     5     3     6    1
     6     4     7    1
     7     4     8    1
     8     9    11    1
     9    10    12    1
    10    11    12    1
    11    11    13    1
    12    11    14    1
    13    12    15    1
    14    12    16    1
    15    17    19    1
    16    18    20    1
    17    19    20    1
    18    19    21    1
    19    19    22    1
    20    20    23    1
    21    20    24    1
    22    25    27    1
    23    26    28    1
    24    27    28    1
    25    27    29    1
    26    27    30    1
    27    28    31    1
    28    28    32    1
    29    33    35    1
    30    34    36    1
    31    35    36    1
    32    35    37    1
    33    35    38    1
    34    36    39    1
    35    36    40    1
    36    41    43    1
    37    42    44    1
    38    43    44    1
    39    43    45    1
    40    43    46    1
    41    44    47    1
    42    44    48    1
    43    49    51    1
    44    50    52    1
    45    51    52    1
    46    51    53    1
    47    51    54    1
    48    52    55    1
    49    52    56    1
    50    57    59    1
    51    58    60    1
    52    59    60    1
    53    59    61    1
    54    59    62    1
    55    60    63    1
    56    60    64    1
    57    65    67    1
    58    66    68    1
    59    67    68    1
    60    67    69    1
    61    67    70    1
    62    68    71    1
    63    68    72    1
    64    73    75    1
    65    74    76    1
    66    75    76    1
    67    75    77    1
    68    75    78    1
    69    76    79    1
    70    76    80    1
    71    81    83    1
    72    82    84    1
    73    83    84    1
    74    83    85    1
    75    83    86    1
    76    84    87    1
    77    84    88    1
    78    89    91    1
    79    90    92    1
    80    91    92    1
    81    91    93    1
    82    91    94    1
    83    92    95    1
    84    92    96    1
    85    97    99    1
    86    98   100    1
    87    99   100    1
    88    99   101    1
    89    99   102    1
    90   100   103    1
    91   100   104    1
    92   105   107    1
    93   106   108    1
    94   107   108    1
    95   107   109    1
    96   107   110    1
    97   108   111    1
    98   108   112    1
    99   113   115    1
   100   114   116    1
   101   115   116    1
   102   115   117    1
   103   115   118    1
   104   116   119    1
   105   116   120    1
   106   121   123    1
   107   122   124    1
   108   123   124    1
   109   123   125    1
   110   123   126    1
   111   124   127    1
   112   124   128    1
   113   129   131    1
   114   130   132    1
   115   131   132    1
   116   131   133    1
   117   131   134    1
   118   132   135    1
   119   132   136    1
