@<TRIPOS>MOLECULE
*****
 128 112 0 0 0
SMALL
GASTEIGER

@<TRIPOS>ATOM
      1 CL          4.3068    0.6085   -1.7639 Cl      1  UNL1       -0.1242
      2 CL          2.0790    2.3242   -0.0287 Cl      1  UNL1       -0.1242
      3 C           4.4957    1.0405   -0.0474 C.3     1  UNL1        0.0360
      4 C           3.1590    1.0949    0.6723 C.3     1  UNL1        0.0360
      5 H           5.0102    2.0055   -0.0013 H       1  UNL1        0.0441
      6 H           5.1422    0.2867    0.4113 H       1  UNL1        0.0441
      7 H           3.3062    1.3499    1.7258 H       1  UNL1        0.0441
      8 H           2.6430    0.1310    0.6232 H       1  UNL1        0.0441
      9 CL         -0.0112    3.3337    6.6161 Cl      2  UNL2       -0.1242
     10 CL          1.3951    2.4219    3.7685 Cl      2  UNL2       -0.1242
     11 C          -0.7798    2.2607    5.4216 C.3     2  UNL2        0.0360
     12 C           0.2424    1.4168    4.6795 C.3     2  UNL2        0.0360
     13 H          -1.3529    2.8873    4.7309 H       2  UNL2        0.0441
     14 H          -1.4811    1.6180    5.9615 H       2  UNL2        0.0441
     15 H          -0.2581    0.7597    3.9623 H       2  UNL2        0.0441
     16 H           0.8178    0.7929    5.3705 H       2  UNL2        0.0441
     17 CL          0.0231    0.2629    9.2902 Cl      3  UNL3       -0.1242
     18 CL          2.7138   -1.4830   10.0836 Cl      3  UNL3       -0.1242
     19 C           0.8221    0.3270   10.8796 C.3     3  UNL3        0.0360
     20 C           2.3219    0.1131   10.7675 C.3     3  UNL3        0.0360
     21 H           0.3597   -0.4341   11.5160 H       3  UNL3        0.0441
     22 H           0.6111    1.3088   11.3134 H       3  UNL3        0.0441
     23 H           2.7874    0.1698   11.7557 H       3  UNL3        0.0441
     24 H           2.7837    0.8720   10.1284 H       3  UNL3        0.0441
     25 CL          2.6202    5.7039    2.9859 Cl      4  UNL4       -0.1242
     26 CL         -0.3679    5.0029    1.7623 Cl      4  UNL4       -0.1242
     27 C           2.1128    6.0699    1.3194 C.3     4  UNL4        0.0360
     28 C           0.6282    6.3810    1.2359 C.3     4  UNL4        0.0360
     29 H           2.3730    5.2092    0.6952 H       4  UNL4        0.0441
     30 H           2.6992    6.9282    0.9789 H       4  UNL4        0.0441
     31 H           0.3475    6.6137    0.2045 H       4  UNL4        0.0441
     32 H           0.3674    7.2395    1.8627 H       4  UNL4        0.0441
     33 CL         -2.0713    6.3153    6.3910 Cl      5  UNL5       -0.1242
     34 CL          1.1440    7.0750    6.3423 Cl      5  UNL5       -0.1242
     35 C          -1.3266    7.4309    5.2207 C.3     5  UNL5        0.0360
     36 C           0.1049    7.0383    4.8974 C.3     5  UNL5        0.0360
     37 H          -1.3750    8.4391    5.6440 H       5  UNL5        0.0441
     38 H          -1.9383    7.4116    4.3141 H       5  UNL5        0.0441
     39 H           0.5324    7.7325    4.1681 H       5  UNL5        0.0441
     40 H           0.1537    6.0289    4.4773 H       5  UNL5        0.0441
     41 CL          1.8021    3.7373   10.0194 Cl      6  UNL6       -0.1242
     42 CL         -1.4006    4.4652   10.3803 Cl      6  UNL6       -0.1242
     43 C           1.0888    5.3221    9.6340 C.3     6  UNL6        0.0360
     44 C          -0.0829    5.6508   10.5433 C.3     6  UNL6        0.0360
     45 H           0.7820    5.3028    8.5835 H       6  UNL6        0.0441
     46 H           1.8769    6.0724    9.7457 H       6  UNL6        0.0441
     47 H          -0.4928    6.6335   10.2923 H       6  UNL6        0.0441
     48 H           0.2232    5.6667   11.5939 H       6  UNL6        0.0441
     49 CL          2.7674   12.4444    1.5309 Cl      7  UNL7       -0.1242
     50 CL          2.9691    9.5872   -0.1163 Cl      7  UNL7       -0.1242
     51 C           1.3740   11.6147    0.7968 C.3     7  UNL7        0.0360
     52 C           1.5421   10.1050    0.8134 C.3     7  UNL7        0.0360
     53 H           1.2634   11.9899   -0.2255 H       7  UNL7        0.0441
     54 H           0.4844   11.9028    1.3643 H       7  UNL7        0.0441
     55 H           0.6675    9.6217    0.3682 H       7  UNL7        0.0441
     56 H           1.6561    9.7302    1.8353 H       7  UNL7        0.0441
     57 CL         -0.9888    9.0049    8.6422 Cl      8  UNL8       -0.1242
     58 CL          0.9236    9.0048   11.3367 Cl      8  UNL8       -0.1242
     59 C          -0.7263   10.4270    9.6802 C.3     8  UNL8        0.0360
     60 C           0.6612   10.4270   10.2987 C.3     8  UNL8        0.0360
     61 H          -1.5037   10.4252   10.4507 H       8  UNL8        0.0441
     62 H          -0.8637   11.3166    9.0587 H       8  UNL8        0.0441
     63 H           0.7987   11.3166   10.9203 H       8  UNL8        0.0441
     64 H           1.4385   10.4253    9.5283 H       8  UNL8        0.0441
     65 CL          5.5819    3.0857    2.7656 Cl      9  UNL9       -0.1242
     66 CL          8.2299    1.3406    1.8382 Cl      9  UNL9       -0.1242
     67 C           5.9405    1.4374    3.3341 C.3     9  UNL9        0.0360
     68 C           7.4355    1.1829    3.4233 C.3     9  UNL9        0.0360
     69 H           5.4594    0.7354    2.6457 H       9  UNL9        0.0441
     70 H           5.4774    1.3218    4.3183 H       9  UNL9        0.0441
     71 H           7.6259    0.1687    3.7863 H       9  UNL9        0.0441
     72 H           7.9171    1.8870    4.1090 H       9  UNL9        0.0441
     73 CL          7.1025    0.3006    6.8455 Cl     10  UNL10      -0.1242
     74 CL          3.8332    0.0685    6.4275 Cl     10  UNL10      -0.1242
     75 C           5.9548    1.6142    7.2007 C.3    10  UNL10       0.0360
     76 C           4.6116    1.0802    7.6681 C.3    10  UNL10       0.0360
     77 H           5.8477    2.2175    6.2938 H      10  UNL10       0.0441
     78 H           6.4037    2.2411    7.9767 H      10  UNL10       0.0441
     79 H           3.9318    1.9079    7.8905 H      10  UNL10       0.0441
     80 H           4.7192    0.4741    8.5730 H      10  UNL10       0.0441
     81 CL          8.6183    0.9943   11.2941 Cl     11  UNL11      -0.1242
     82 CL          5.9083   -0.7629   11.9912 Cl     11  UNL11      -0.1242
     83 C           7.0357    1.2508   10.5206 C.3    11  UNL11       0.0360
     84 C           5.8876    0.9375   11.4647 C.3    11  UNL11       0.0360
     85 H           6.9961    0.6215    9.6259 H      11  UNL11       0.0441
     86 H           6.9909    2.2970   10.2043 H      11  UNL11       0.0441
     87 H           4.9294    1.1154   10.9679 H      11  UNL11       0.0441
     88 H           5.9291    1.5643   12.3609 H      11  UNL11       0.0441
     89 CL          7.9256    6.4877    0.1850 Cl     12  UNL12      -0.1242
     90 CL          5.4356    8.1298    1.6065 Cl     12  UNL12      -0.1242
     91 C           7.3546    6.1936    1.8452 C.3    12  UNL12       0.0360
     92 C           5.8624    6.4430    1.9822 C.3    12  UNL12       0.0360
     93 H           7.9280    6.8425    2.5146 H      12  UNL12       0.0441
     94 H           7.5891    5.1544    2.0934 H      12  UNL12       0.0441
     95 H           5.5377    6.2430    3.0075 H      12  UNL12       0.0441
     96 H           5.2892    5.7966    1.3103 H      12  UNL12       0.0441
     97 CL          3.5931    4.0273    5.8612 Cl     13  UNL13      -0.1242
     98 CL          4.2365    6.3770    8.0933 Cl     13  UNL13      -0.1242
     99 C           5.0592    5.0368    5.8538 C.3    13  UNL13       0.0360
    100 C           5.4868    5.4230    7.2594 C.3    13  UNL13       0.0360
    101 H           4.8509    5.9226    5.2455 H      13  UNL13       0.0441
    102 H           5.8500    4.4631    5.3618 H      13  UNL13       0.0441
    103 H           6.3952    6.0314    7.2251 H      13  UNL13       0.0441
    104 H           5.6918    4.5373    7.8687 H      13  UNL13       0.0441
    105 CL          9.2625    4.8042   11.1595 Cl     14  UNL14      -0.1242
    106 CL          5.9603    4.8888   11.0835 Cl     14  UNL14      -0.1242
    107 C           8.3152    5.8486   10.0728 C.3    14  UNL14       0.0360
    108 C           7.0035    6.2808   10.7056 C.3    14  UNL14       0.0360
    109 H           8.1439    5.2950    9.1442 H      14  UNL14       0.0441
    110 H           8.9297    6.7232    9.8404 H      14  UNL14       0.0441
    111 H           6.4491    6.9302   10.0218 H      14  UNL14       0.0441
    112 H           7.1747    6.8313   11.6359 H      14  UNL14       0.0441
    113 CL          3.2363    9.0220    4.3941 Cl     15  UNL15      -0.1242
    114 CL          5.5513   11.3680    4.1606 Cl     15  UNL15      -0.1242
    115 C           3.9344    9.8782    5.7899 C.3    15  UNL15       0.0360
    116 C           4.3181   11.3065    5.4428 C.3    15  UNL15       0.0360
    117 H           4.8030    9.3063    6.1313 H      15  UNL15       0.0441
    118 H           3.1858    9.8705    6.5874 H      15  UNL15       0.0441
    119 H           4.7320   11.8113    6.3206 H      15  UNL15       0.0441
    120 H           3.4502   11.8773    5.0982 H      15  UNL15       0.0441
    121 CL          4.1923    8.9385   11.5205 Cl     16  UNL16      -0.1242
    122 CL          5.9910    9.7631    8.8744 Cl     16  UNL16      -0.1242
    123 C           4.4569   10.6123   10.9753 C.3    16  UNL16       0.0360
    124 C           4.5971   10.6994    9.4652 C.3    16  UNL16       0.0360
    125 H           5.3527   10.9891   11.4789 H      16  UNL16       0.0441
    126 H           3.6015   11.2057   11.3109 H      16  UNL16       0.0441
    127 H           4.7461   11.7387    9.1581 H      16  UNL16       0.0441
    128 H           3.7028   10.3194    8.9616 H      16  UNL16       0.0441
@<TRIPOS>BOND
     1     1     3    1
     2     2     4    1
     3     3     4    1
     4     3     5    1
     5     3     6    1
     6     4     7    1
     7     4     8    1
     8     9    11    1
     9    10    12    1
    10    11    12    1
    11    11    13    1
    12    11    14    1
    13    12    15    1
    14    12    16    1
    15    17    19    1
    16    18    20    1
    17    19    20    1
    18    19    21    1
    19    19    22    1
    20    20    23    1
    21    20    24    1
    22    25    27    1
    23    26    28    1
    24    27    28    1
    25    27    29    1
    26    27    30    1
    27    28    31    1
    28    28    32    1
    29    33    35    1
    30    34    36    1
    31    35    36    1
    32    35    37    1
    33    35    38    1
    34    36    39    1
    35    36    40    1
    36    41    43    1
    37    42    44    1
    38    43    44    1
    39    43    45    1
    40    43    46    1
    41    44    47    1
    42    44    48    1
    43    49    51    1
    44    50    52    1
    45    51    52    1
    46    51    53    1
    47    51    54    1
    48    52    55    1
    49    52    56    1
    50    57    59    1
    51    58    60    1
    52    59    60    1
    53    59    61    1
    54    59    62    1
    55    60    63    1
    56    60    64    1
    57    65    67    1
    58    66    68    1
    59    67    68    1
    60    67    69    1
    61    67    70    1
    62    68    71    1
    63    68    72    1
    64    73    75    1
    65    74    76    1
    66    75    76    1
    67    75    77    1
    68    75    78    1
    69    76    79    1
    70    76    80    1
    71    81    83    1
    72    82    84    1
    73    83    84    1
    74    83    85    1
    75    83    86    1
    76    84    87    1
    77    84    88    1
    78    89    91    1
    79    90    92    1
    80    91    92    1
    81    91    93    1
    82    91    94    1
    83    92    95    1
    84    92    96    1
    85    97    99    1
    86    98   100    1
    87    99   100    1
    88    99   101    1
    89    99   102    1
    90   100   103    1
    91   100   104    1
    92   105   107    1
    93   106   108    1
    94   107   108    1
    95   107   109    1
    96   107   110    1
    97   108   111    1
    98   108   112    1
    99   113   115    1
   100   114   116    1
   101   115   116    1
   102   115   117    1
   103   115   118    1
   104   116   119    1
   105   116   120    1
   106   121   123    1
   107   122   124    1
   108   123   124    1
   109   123   125    1
   110   123   126    1
   111   124   127    1
   112   124   128    1
