@<TRIPOS>MOLECULE
*****
 1104 966 0 0 0
SMALL
GASTEIGER

@<TRIPOS>ATOM
      1 CL          3.4355    0.3276   -0.2277 Cl      1  UNL1       -0.1257
      2 C           1.8930   -0.5541   -0.2277 C.3     1  UNL1        0.0198
      3 C           0.7285    0.4137   -0.2277 C.3     1  UNL1       -0.0517
      4 H           1.8684   -1.1912   -1.1163 H       1  UNL1        0.0427
      5 H           1.8684   -1.1912    0.6608 H       1  UNL1        0.0427
      6 H          -0.2184   -0.1356   -0.2277 H       1  UNL1        0.0241
      7 H           0.7458    1.0549    0.6597 H       1  UNL1        0.0241
      8 H           0.7458    1.0549   -1.1151 H       1  UNL1        0.0241
      9 CL          3.2603    1.5057    2.7052 Cl      2  UNL2       -0.1257
     10 C           1.7178    0.6240    2.7052 C.3     2  UNL2        0.0198
     11 C           0.5533    1.5918    2.7052 C.3     2  UNL2       -0.0517
     12 H           1.6932   -0.0131    1.8166 H       2  UNL2        0.0427
     13 H           1.6932   -0.0131    3.5937 H       2  UNL2        0.0427
     14 H          -0.3936    1.0425    2.7052 H       2  UNL2        0.0241
     15 H           0.5706    2.2330    3.5926 H       2  UNL2        0.0241
     16 H           0.5706    2.2330    1.8178 H       2  UNL2        0.0241
     17 CL          0.7050    3.1946   -0.1488 Cl      3  UNL3       -0.1257
     18 C           2.0524    4.3528   -0.1488 C.3     3  UNL3        0.0198
     19 C           3.3792    3.6233   -0.1488 C.3     3  UNL3       -0.0517
     20 H           1.9557    4.9830   -1.0374 H       3  UNL3        0.0427
     21 H           1.9557    4.9830    0.7397 H       3  UNL3        0.0427
     22 H           4.2048    4.3422   -0.1488 H       3  UNL3        0.0241
     23 H           3.4838    2.9905    0.7386 H       3  UNL3        0.0241
     24 H           3.4838    2.9905   -1.0362 H       3  UNL3        0.0241
     25 CL          3.9193    4.5726    3.1740 Cl      4  UNL4       -0.1257
     26 C           2.3768    3.6909    3.1740 C.3     4  UNL4        0.0198
     27 C           1.2123    4.6587    3.1740 C.3     4  UNL4       -0.0517
     28 H           2.3522    3.0538    2.2854 H       4  UNL4        0.0427
     29 H           2.3522    3.0538    4.0625 H       4  UNL4        0.0427
     30 H           0.2654    4.1094    3.1740 H       4  UNL4        0.0241
     31 H           1.2296    5.2999    4.0614 H       4  UNL4        0.0241
     32 H           1.2296    5.2999    2.2866 H       4  UNL4        0.0241
     33 CL          0.0685    7.4202   -0.1682 Cl      5  UNL5       -0.1257
     34 C           1.1792    8.8070   -0.1682 C.3     5  UNL5        0.0198
     35 C           2.6178    8.3347   -0.1682 C.3     5  UNL5       -0.0517
     36 H           0.9680    9.4085   -1.0568 H       5  UNL5        0.0427
     37 H           0.9680    9.4085    0.7203 H       5  UNL5        0.0427
     38 H           3.2967    9.1935   -0.1682 H       5  UNL5        0.0241
     39 H           2.8373    7.7320    0.7192 H       5  UNL5        0.0241
     40 H           2.8373    7.7320   -1.0556 H       5  UNL5        0.0241
     41 CL          4.2024    7.5134    2.6431 Cl      6  UNL6       -0.1257
     42 C           2.6599    6.6317    2.6431 C.3     6  UNL6        0.0198
     43 C           1.4954    7.5995    2.6431 C.3     6  UNL6       -0.0517
     44 H           2.6353    5.9946    1.7545 H       6  UNL6        0.0427
     45 H           2.6353    5.9946    3.5316 H       6  UNL6        0.0427
     46 H           0.5485    7.0502    2.6431 H       6  UNL6        0.0241
     47 H           1.5127    8.2407    3.5305 H       6  UNL6        0.0241
     48 H           1.5127    8.2407    1.7557 H       6  UNL6        0.0241
     49 CL          4.0280   12.1589   -0.5824 Cl      7  UNL7       -0.1257
     50 C           2.4855   11.2772   -0.5824 C.3     7  UNL7        0.0198
     51 C           1.3210   12.2450   -0.5824 C.3     7  UNL7       -0.0517
     52 H           2.4609   10.6401   -1.4709 H       7  UNL7        0.0427
     53 H           2.4609   10.6401    0.3061 H       7  UNL7        0.0427
     54 H           0.3741   11.6957   -0.5824 H       7  UNL7        0.0241
     55 H           1.3383   12.8862    0.3050 H       7  UNL7        0.0241
     56 H           1.3383   12.8862   -1.4698 H       7  UNL7        0.0241
     57 CL          3.4517   11.0294    3.4168 Cl      8  UNL8       -0.1257
     58 C           1.9092   10.1477    3.4168 C.3     8  UNL8        0.0198
     59 C           0.7447   11.1155    3.4168 C.3     8  UNL8       -0.0517
     60 H           1.8846    9.5106    2.5282 H       8  UNL8        0.0427
     61 H           1.8846    9.5106    4.3053 H       8  UNL8        0.0427
     62 H          -0.2022   10.5662    3.4168 H       8  UNL8        0.0241
     63 H           0.7620   11.7567    4.3042 H       8  UNL8        0.0241
     64 H           0.7620   11.7567    2.5294 H       8  UNL8        0.0241
     65 CL         -0.4556   13.9713   -0.1628 Cl      9  UNL9       -0.1257
     66 C           0.6550   15.3580   -0.1628 C.3     9  UNL9        0.0198
     67 C           2.0937   14.8858   -0.1628 C.3     9  UNL9       -0.0517
     68 H           0.4438   15.9596   -1.0514 H       9  UNL9        0.0427
     69 H           0.4438   15.9596    0.7257 H       9  UNL9        0.0427
     70 H           2.7725   15.7445   -0.1628 H       9  UNL9        0.0241
     71 H           2.3132   14.2831    0.7246 H       9  UNL9        0.0241
     72 H           2.3132   14.2831   -1.0502 H       9  UNL9        0.0241
     73 CL          3.7328   13.8314    3.4284 Cl     10  UNL10      -0.1257
     74 C           2.1903   12.9497    3.4284 C.3    10  UNL10       0.0198
     75 C           1.0258   13.9175    3.4284 C.3    10  UNL10      -0.0517
     76 H           2.1657   12.3126    2.5398 H      10  UNL10       0.0427
     77 H           2.1657   12.3126    4.3169 H      10  UNL10       0.0427
     78 H           0.0789   13.3682    3.4284 H      10  UNL10       0.0241
     79 H           1.0431   14.5587    4.3158 H      10  UNL10       0.0241
     80 H           1.0431   14.5587    2.5410 H      10  UNL10       0.0241
     81 CL          3.2014   18.6225    0.0170 Cl     11  UNL11      -0.1257
     82 C           1.6589   17.7408    0.0170 C.3    11  UNL11       0.0198
     83 C           0.4944   18.7086    0.0170 C.3    11  UNL11      -0.0517
     84 H           1.6343   17.1037   -0.8716 H      11  UNL11       0.0427
     85 H           1.6343   17.1037    0.9055 H      11  UNL11       0.0427
     86 H          -0.4525   18.1593    0.0170 H      11  UNL11       0.0241
     87 H           0.5117   19.3498    0.9044 H      11  UNL11       0.0241
     88 H           0.5117   19.3498   -0.8704 H      11  UNL11       0.0241
     89 CL          3.3303   17.2709    2.8613 Cl     12  UNL12      -0.1257
     90 C           1.7878   16.3892    2.8613 C.3    12  UNL12       0.0198
     91 C           0.6233   17.3570    2.8613 C.3    12  UNL12      -0.0517
     92 H           1.7632   15.7521    1.9727 H      12  UNL12       0.0427
     93 H           1.7632   15.7521    3.7498 H      12  UNL12       0.0427
     94 H          -0.3236   16.8077    2.8613 H      12  UNL12       0.0241
     95 H           0.6406   17.9982    3.7487 H      12  UNL12       0.0241
     96 H           0.6406   17.9982    1.9739 H      12  UNL12       0.0241
     97 CL          3.6959   21.4344   -0.1679 Cl     13  UNL13      -0.1257
     98 C           2.1533   20.5527   -0.1679 C.3    13  UNL13       0.0198
     99 C           0.9889   21.5205   -0.1679 C.3    13  UNL13      -0.0517
    100 H           2.1287   19.9156   -1.0565 H      13  UNL13       0.0427
    101 H           2.1287   19.9156    0.7206 H      13  UNL13       0.0427
    102 H           0.0420   20.9712   -0.1679 H      13  UNL13       0.0241
    103 H           1.0062   22.1617    0.7195 H      13  UNL13       0.0241
    104 H           1.0062   22.1617   -1.0553 H      13  UNL13       0.0241
    105 CL          3.7241   20.2809    2.9974 Cl     14  UNL14      -0.1257
    106 C           2.1816   19.3992    2.9974 C.3    14  UNL14       0.0198
    107 C           1.0171   20.3670    2.9974 C.3    14  UNL14      -0.0517
    108 H           2.1570   18.7621    2.1088 H      14  UNL14       0.0427
    109 H           2.1570   18.7621    3.8859 H      14  UNL14       0.0427
    110 H           0.0702   19.8177    2.9974 H      14  UNL14       0.0241
    111 H           1.0344   21.0082    3.8848 H      14  UNL14       0.0241
    112 H           1.0344   21.0082    2.1100 H      14  UNL14       0.0241
    113 CL          2.1613   23.5896    0.3683 Cl     15  UNL15      -0.1257
    114 C           0.6188   24.0609   -0.3770 C.3    15  UNL15       0.0198
    115 C          -0.5457   23.5436    0.4410 C.3    15  UNL15      -0.0517
    116 H           0.5942   25.1524   -0.4405 H      15  UNL15       0.0427
    117 H           0.5942   23.6504   -1.3903 H      15  UNL15       0.0427
    118 H          -1.4926   23.8372   -0.0232 H      15  UNL15       0.0241
    119 H          -0.5284   22.4509    0.5087 H      15  UNL15       0.0241
    120 H          -0.5284   23.9509    1.4572 H      15  UNL15       0.0241
    121 CL          3.2746   25.2356    3.2834 Cl     16  UNL16      -0.1257
    122 C           1.7321   24.3539    3.2834 C.3    16  UNL16       0.0198
    123 C           0.5676   25.3217    3.2834 C.3    16  UNL16      -0.0517
    124 H           1.7075   23.7168    2.3948 H      16  UNL16       0.0427
    125 H           1.7075   23.7168    4.1719 H      16  UNL16       0.0427
    126 H          -0.3793   24.7724    3.2834 H      16  UNL16       0.0241
    127 H           0.5849   25.9629    4.1708 H      16  UNL16       0.0241
    128 H           0.5849   25.9629    2.3960 H      16  UNL16       0.0241
    129 CL          3.7313   26.9197    0.3295 Cl     17  UNL17      -0.1257
    130 C           2.1888   26.0380    0.3295 C.3    17  UNL17       0.0198
    131 C           1.0243   27.0058    0.3295 C.3    17  UNL17      -0.0517
    132 H           2.1642   25.4009   -0.5591 H      17  UNL17       0.0427
    133 H           2.1642   25.4009    1.2180 H      17  UNL17       0.0427
    134 H           0.0774   26.4565    0.3295 H      17  UNL17       0.0241
    135 H           1.0416   27.6470    1.2169 H      17  UNL17       0.0241
    136 H           1.0416   27.6470   -0.5579 H      17  UNL17       0.0241
    137 CL          3.7625   28.2598    3.2857 Cl     18  UNL18      -0.1257
    138 C           2.2200   27.3781    3.2857 C.3    18  UNL18       0.0198
    139 C           1.0555   28.3459    3.2857 C.3    18  UNL18      -0.0517
    140 H           2.1954   26.7410    2.3971 H      18  UNL18       0.0427
    141 H           2.1954   26.7410    4.1742 H      18  UNL18       0.0427
    142 H           0.1087   27.7966    3.2857 H      18  UNL18       0.0241
    143 H           1.0729   28.9871    4.1731 H      18  UNL18       0.0241
    144 H           1.0729   28.9871    2.3983 H      18  UNL18       0.0241
    145 CL          4.0280   29.9268    0.2616 Cl     19  UNL19      -0.1257
    146 C           2.4855   29.0451    0.2616 C.3    19  UNL19       0.0198
    147 C           1.3210   30.0129    0.2616 C.3    19  UNL19      -0.0517
    148 H           2.4609   28.4080   -0.6270 H      19  UNL19       0.0427
    149 H           2.4609   28.4080    1.1501 H      19  UNL19       0.0427
    150 H           0.3741   29.4636    0.2616 H      19  UNL19       0.0241
    151 H           1.3383   30.6541    1.1490 H      19  UNL19       0.0241
    152 H           1.3383   30.6541   -0.6258 H      19  UNL19       0.0241
    153 CL          4.1795   31.2247    3.3317 Cl     20  UNL20      -0.1257
    154 C           2.6370   30.3430    3.3317 C.3    20  UNL20       0.0198
    155 C           1.4725   31.3108    3.3317 C.3    20  UNL20      -0.0517
    156 H           2.6124   29.7059    2.4431 H      20  UNL20       0.0427
    157 H           2.6124   29.7059    4.2202 H      20  UNL20       0.0427
    158 H           0.5256   30.7615    3.3317 H      20  UNL20       0.0241
    159 H           1.4898   31.9520    4.2191 H      20  UNL20       0.0241
    160 H           1.4898   31.9520    2.4443 H      20  UNL20       0.0241
    161 CL          4.3528   32.9338    0.3098 Cl     21  UNL21      -0.1257
    162 C           2.8103   32.0521    0.3098 C.3    21  UNL21       0.0198
    163 C           1.6458   33.0199    0.3098 C.3    21  UNL21      -0.0517
    164 H           2.7857   31.4150   -0.5788 H      21  UNL21       0.0427
    165 H           2.7857   31.4150    1.1983 H      21  UNL21       0.0427
    166 H           0.6989   32.4706    0.3098 H      21  UNL21       0.0241
    167 H           1.6631   33.6611    1.1972 H      21  UNL21       0.0241
    168 H           1.6631   33.6611   -0.5776 H      21  UNL21       0.0241
    169 CL          4.5169   34.2359    3.3311 Cl     22  UNL22      -0.1257
    170 C           2.9744   33.3542    3.3311 C.3    22  UNL22       0.0198
    171 C           1.8099   34.3220    3.3311 C.3    22  UNL22      -0.0517
    172 H           2.9498   32.7171    2.4425 H      22  UNL22       0.0427
    173 H           2.9498   32.7171    4.2195 H      22  UNL22       0.0427
    174 H           0.8630   33.7727    3.3311 H      22  UNL22       0.0241
    175 H           1.8272   34.9632    4.2184 H      22  UNL22       0.0241
    176 H           1.8272   34.9632    2.4437 H      22  UNL22       0.0241
    177 CL          4.6805   36.2542    0.0091 Cl     23  UNL23      -0.1257
    178 C           3.1380   35.3725    0.0091 C.3    23  UNL23       0.0198
    179 C           1.9735   36.3403    0.0091 C.3    23  UNL23      -0.0517
    180 H           3.1134   34.7354   -0.8795 H      23  UNL23       0.0427
    181 H           3.1134   34.7354    0.8976 H      23  UNL23       0.0427
    182 H           1.0266   35.7910    0.0091 H      23  UNL23       0.0241
    183 H           1.9908   36.9815    0.8965 H      23  UNL23       0.0241
    184 H           1.9908   36.9815   -0.8783 H      23  UNL23       0.0241
    185 CL          4.2477   37.7852    3.4661 Cl     24  UNL24      -0.1257
    186 C           2.7052   36.9035    3.4661 C.3    24  UNL24       0.0198
    187 C           1.5407   37.8713    3.4661 C.3    24  UNL24      -0.0517
    188 H           2.6806   36.2664    2.5775 H      24  UNL24       0.0427
    189 H           2.6806   36.2664    4.3546 H      24  UNL24       0.0427
    190 H           0.5938   37.3220    3.4661 H      24  UNL24       0.0241
    191 H           1.5580   38.5125    4.3535 H      24  UNL24       0.0241
    192 H           1.5580   38.5125    2.5787 H      24  UNL24       0.0241
    193 CL          8.6031    1.5252    0.7481 Cl     25  UNL25      -0.1257
    194 C           7.0606    0.6435    0.7481 C.3    25  UNL25       0.0198
    195 C           5.8961    1.6113    0.7481 C.3    25  UNL25      -0.0517
    196 H           7.0360    0.0064   -0.1405 H      25  UNL25       0.0427
    197 H           7.0360    0.0064    1.6366 H      25  UNL25       0.0427
    198 H           4.9492    1.0620    0.7481 H      25  UNL25       0.0241
    199 H           5.9134    2.2525    1.6355 H      25  UNL25       0.0241
    200 H           5.9134    2.2525   -0.1393 H      25  UNL25       0.0241
    201 CL          8.1270    0.1111    3.9296 Cl     26  UNL26      -0.1257
    202 C           6.5845   -0.7706    3.9296 C.3    26  UNL26       0.0198
    203 C           5.4200    0.1972    3.9296 C.3    26  UNL26      -0.0517
    204 H           6.5599   -1.4077    3.0410 H      26  UNL26       0.0427
    205 H           6.5599   -1.4077    4.8181 H      26  UNL26       0.0427
    206 H           4.4731   -0.3521    3.9296 H      26  UNL26       0.0241
    207 H           5.4373    0.8384    4.8170 H      26  UNL26       0.0241
    208 H           5.4373    0.8384    3.0422 H      26  UNL26       0.0241
    209 CL          8.9001    4.9452    0.9250 Cl     27  UNL27      -0.1257
    210 C           7.3576    5.4164    1.6702 C.3    27  UNL27       0.0198
    211 C           6.1931    4.8992    0.8522 C.3    27  UNL27      -0.0517
    212 H           7.3330    5.0059    2.6836 H      27  UNL27       0.0427
    213 H           7.3330    6.5079    1.7338 H      27  UNL27       0.0427
    214 H           5.2462    5.1927    1.3165 H      27  UNL27       0.0241
    215 H           6.2104    5.3065   -0.1640 H      27  UNL27       0.0241
    216 H           6.2104    3.8064    0.7846 H      27  UNL27       0.0241
    217 CL          8.6964    3.2188    3.3945 Cl     28  UNL28      -0.1257
    218 C           7.1539    2.3371    3.3945 C.3    28  UNL28       0.0198
    219 C           5.9893    3.3049    3.3945 C.3    28  UNL28      -0.0517
    220 H           7.1292    1.7000    2.5059 H      28  UNL28       0.0427
    221 H           7.1292    1.7000    4.2830 H      28  UNL28       0.0427
    222 H           5.0424    2.7556    3.3945 H      28  UNL28       0.0241
    223 H           6.0067    3.9461    4.2819 H      28  UNL28       0.0241
    224 H           6.0067    3.9461    2.5071 H      28  UNL28       0.0241
    225 CL          5.8502    7.0537    0.6339 Cl     29  UNL29      -0.1257
    226 C           6.9609    8.4405    0.6339 C.3    29  UNL29       0.0198
    227 C           8.3995    7.9682    0.6339 C.3    29  UNL29      -0.0517
    228 H           6.7497    9.0420   -0.2547 H      29  UNL29       0.0427
    229 H           6.7497    9.0420    1.5224 H      29  UNL29       0.0427
    230 H           9.0784    8.8270    0.6339 H      29  UNL29       0.0241
    231 H           8.6190    7.3655    1.5213 H      29  UNL29       0.0241
    232 H           8.6190    7.3655   -0.2535 H      29  UNL29       0.0241
    233 CL          8.1099    7.6926    4.7617 Cl     30  UNL30      -0.1257
    234 C           6.5674    6.8108    4.7617 C.3    30  UNL30       0.0198
    235 C           5.4029    7.7786    4.7617 C.3    30  UNL30      -0.0517
    236 H           6.5428    6.1738    3.8731 H      30  UNL30       0.0427
    237 H           6.5428    6.1738    5.6502 H      30  UNL30       0.0427
    238 H           4.4560    7.2294    4.7617 H      30  UNL30       0.0241
    239 H           5.4202    8.4198    5.6491 H      30  UNL30       0.0241
    240 H           5.4202    8.4198    3.8743 H      30  UNL30       0.0241
    241 CL          7.9806   10.4430    1.0745 Cl     31  UNL31      -0.1257
    242 C           6.4381   10.9142    1.8197 C.3    31  UNL31       0.0198
    243 C           5.2736   10.3970    1.0017 C.3    31  UNL31      -0.0517
    244 H           6.4135   10.5037    2.8331 H      31  UNL31       0.0427
    245 H           6.4135   12.0057    1.8833 H      31  UNL31       0.0427
    246 H           4.3267   10.6905    1.4660 H      31  UNL31       0.0241
    247 H           5.2909   10.8043   -0.0145 H      31  UNL31       0.0241
    248 H           5.2909    9.3042    0.9341 H      31  UNL31       0.0241
    249 CL          8.5534   10.7462    4.9891 Cl     32  UNL32      -0.1257
    250 C           7.0109    9.8645    4.9891 C.3    32  UNL32       0.0198
    251 C           5.8464   10.8323    4.9891 C.3    32  UNL32      -0.0517
    252 H           6.9863    9.2274    4.1005 H      32  UNL32       0.0427
    253 H           6.9863    9.2274    5.8776 H      32  UNL32       0.0427
    254 H           4.8995   10.2830    4.9891 H      32  UNL32       0.0241
    255 H           5.8637   11.4735    5.8765 H      32  UNL32       0.0241
    256 H           5.8637   11.4735    4.1017 H      32  UNL32       0.0241
    257 CL          7.4373   14.9558    1.6123 Cl     33  UNL33      -0.1257
    258 C           5.8949   14.0741    1.6123 C.3    33  UNL33       0.0198
    259 C           4.7304   15.0419    1.6123 C.3    33  UNL33      -0.0517
    260 H           5.8703   13.4370    0.7237 H      33  UNL33       0.0427
    261 H           5.8703   13.4370    2.5008 H      33  UNL33       0.0427
    262 H           3.7835   14.4926    1.6123 H      33  UNL33       0.0241
    263 H           4.7477   15.6831    2.4997 H      33  UNL33       0.0241
    264 H           4.7477   15.6831    0.7249 H      33  UNL33       0.0241
    265 CL          8.6570   17.8625    1.6047 Cl     34  UNL34      -0.1257
    266 C           7.1145   18.3338    0.8595 C.3    34  UNL34       0.0198
    267 C           5.9500   17.8165    1.6775 C.3    34  UNL34      -0.0517
    268 H           7.0899   19.4253    0.7960 H      34  UNL34       0.0427
    269 H           7.0899   17.9233   -0.1538 H      34  UNL34       0.0427
    270 H           5.0031   18.1101    1.2132 H      34  UNL34       0.0241
    271 H           5.9673   16.7238    1.7452 H      34  UNL34       0.0241
    272 H           5.9673   18.2239    2.6937 H      34  UNL34       0.0241
    273 CL          7.3297   17.4438    4.8455 Cl     35  UNL35      -0.1257
    274 C           5.7872   16.5621    4.8455 C.3    35  UNL35       0.0198
    275 C           4.6227   17.5299    4.8455 C.3    35  UNL35      -0.0517
    276 H           5.7626   15.9250    3.9569 H      35  UNL35       0.0427
    277 H           5.7626   15.9250    5.7340 H      35  UNL35       0.0427
    278 H           3.6758   16.9806    4.8455 H      35  UNL35       0.0241
    279 H           4.6400   18.1711    5.7329 H      35  UNL35       0.0241
    280 H           4.6400   18.1711    3.9581 H      35  UNL35       0.0241
    281 CL          7.7362   22.2987    1.7761 Cl     36  UNL36      -0.1257
    282 C           6.1938   21.4170    1.7761 C.3    36  UNL36       0.0198
    283 C           5.0293   22.3848    1.7761 C.3    36  UNL36      -0.0517
    284 H           6.1692   20.7799    0.8875 H      36  UNL36       0.0427
    285 H           6.1692   20.7799    2.6646 H      36  UNL36       0.0427
    286 H           4.0824   21.8355    1.7761 H      36  UNL36       0.0241
    287 H           5.0466   23.0260    2.6635 H      36  UNL36       0.0241
    288 H           5.0466   23.0260    0.8887 H      36  UNL36       0.0241
    289 CL          7.8705   20.4971    4.9382 Cl     37  UNL37      -0.1257
    290 C           6.3280   19.6154    4.9382 C.3    37  UNL37       0.0198
    291 C           5.1635   20.5832    4.9382 C.3    37  UNL37      -0.0517
    292 H           6.3034   18.9783    4.0496 H      37  UNL37       0.0427
    293 H           6.3034   18.9783    5.8267 H      37  UNL37       0.0427
    294 H           4.2166   20.0339    4.9382 H      37  UNL37       0.0241
    295 H           5.1808   21.2244    5.8256 H      37  UNL37       0.0241
    296 H           5.1808   21.2244    4.0508 H      37  UNL37       0.0241
    297 CL          8.2517   25.2783    1.4829 Cl     38  UNL38      -0.1257
    298 C           6.7092   24.3966    1.4829 C.3    38  UNL38       0.0198
    299 C           5.5447   25.3644    1.4829 C.3    38  UNL38      -0.0517
    300 H           6.6846   23.7595    0.5943 H      38  UNL38       0.0427
    301 H           6.6846   23.7595    2.3714 H      38  UNL38       0.0427
    302 H           4.5978   24.8151    1.4829 H      38  UNL38       0.0241
    303 H           5.5620   26.0056    2.3703 H      38  UNL38       0.0241
    304 H           5.5620   26.0056    0.5955 H      38  UNL38       0.0241
    305 CL          8.2379   23.6873    4.8217 Cl     39  UNL39      -0.1257
    306 C           6.6954   22.8056    4.8217 C.3    39  UNL39       0.0198
    307 C           5.5309   23.7734    4.8217 C.3    39  UNL39      -0.0517
    308 H           6.6708   22.1685    3.9331 H      39  UNL39       0.0427
    309 H           6.6708   22.1685    5.7102 H      39  UNL39       0.0427
    310 H           4.5840   23.2241    4.8217 H      39  UNL39       0.0241
    311 H           5.5482   24.4146    5.7091 H      39  UNL39       0.0241
    312 H           5.5482   24.4146    3.9343 H      39  UNL39       0.0241
    313 CL          8.7940   28.3842    1.4923 Cl     40  UNL40      -0.1257
    314 C           7.2515   27.5025    1.4923 C.3    40  UNL40       0.0198
    315 C           6.0870   28.4703    1.4923 C.3    40  UNL40      -0.0517
    316 H           7.2269   26.8654    0.6037 H      40  UNL40       0.0427
    317 H           7.2269   26.8654    2.3808 H      40  UNL40       0.0427
    318 H           5.1401   27.9210    1.4923 H      40  UNL40       0.0241
    319 H           6.1043   29.1115    2.3797 H      40  UNL40       0.0241
    320 H           6.1043   29.1115    0.6049 H      40  UNL40       0.0241
    321 CL          8.6687   26.8876    4.3515 Cl     41  UNL41      -0.1257
    322 C           7.1262   26.0059    4.3515 C.3    41  UNL41       0.0198
    323 C           5.9617   26.9737    4.3515 C.3    41  UNL41      -0.0517
    324 H           7.1016   25.3688    3.4629 H      41  UNL41       0.0427
    325 H           7.1016   25.3688    5.2400 H      41  UNL41       0.0427
    326 H           5.0148   26.4244    4.3515 H      41  UNL41       0.0241
    327 H           5.9790   27.6149    5.2389 H      41  UNL41       0.0241
    328 H           5.9790   27.6149    3.4641 H      41  UNL41       0.0241
    329 CL          9.1525   31.3877    1.5447 Cl     42  UNL42      -0.1257
    330 C           7.6100   30.5060    1.5447 C.3    42  UNL42       0.0198
    331 C           6.4455   31.4738    1.5447 C.3    42  UNL42      -0.0517
    332 H           7.5854   29.8689    0.6561 H      42  UNL42       0.0427
    333 H           7.5854   29.8689    2.4332 H      42  UNL42       0.0427
    334 H           5.4986   30.9245    1.5447 H      42  UNL42       0.0241
    335 H           6.4628   32.1150    2.4321 H      42  UNL42       0.0241
    336 H           6.4628   32.1150    0.6573 H      42  UNL42       0.0241
    337 CL          8.9652   29.8855    4.4983 Cl     43  UNL43      -0.1257
    338 C           7.4227   29.0038    4.4983 C.3    43  UNL43       0.0198
    339 C           6.2582   29.9716    4.4983 C.3    43  UNL43      -0.0517
    340 H           7.3981   28.3667    3.6097 H      43  UNL43       0.0427
    341 H           7.3981   28.3667    5.3868 H      43  UNL43       0.0427
    342 H           5.3113   29.4223    4.4983 H      43  UNL43       0.0241
    343 H           6.2755   30.6128    5.3857 H      43  UNL43       0.0241
    344 H           6.2755   30.6128    3.6109 H      43  UNL43       0.0241
    345 CL          9.2731   34.5246    1.1045 Cl     44  UNL44      -0.1257
    346 C           7.7307   33.6429    1.1045 C.3    44  UNL44       0.0198
    347 C           6.5662   34.6107    1.1045 C.3    44  UNL44      -0.0517
    348 H           7.7061   33.0058    0.2159 H      44  UNL44       0.0427
    349 H           7.7061   33.0058    1.9930 H      44  UNL44       0.0427
    350 H           5.6193   34.0614    1.1045 H      44  UNL44       0.0241
    351 H           6.5835   35.2519    1.9919 H      44  UNL44       0.0241
    352 H           6.5835   35.2519    0.2171 H      44  UNL44       0.0241
    353 CL          9.2827   32.9018    4.5947 Cl     45  UNL45      -0.1257
    354 C           7.7402   32.0201    4.5947 C.3    45  UNL45       0.0198
    355 C           6.5757   32.9879    4.5947 C.3    45  UNL45      -0.0517
    356 H           7.7156   31.3830    3.7061 H      45  UNL45       0.0427
    357 H           7.7156   31.3830    5.4832 H      45  UNL45       0.0427
    358 H           5.6288   32.4386    4.5947 H      45  UNL45       0.0241
    359 H           6.5930   33.6291    5.4821 H      45  UNL45       0.0241
    360 H           6.5930   33.6291    3.7073 H      45  UNL45       0.0241
    361 CL          8.5782   38.0410    1.4995 Cl     46  UNL46      -0.1257
    362 C           7.0358   37.1593    1.4995 C.3    46  UNL46       0.0198
    363 C           5.8713   38.1271    1.4995 C.3    46  UNL46      -0.0517
    364 H           7.0112   36.5222    0.6109 H      46  UNL46       0.0427
    365 H           7.0112   36.5222    2.3881 H      46  UNL46       0.0427
    366 H           4.9244   37.5778    1.4995 H      46  UNL46       0.0241
    367 H           5.8886   38.7683    2.3870 H      46  UNL46       0.0241
    368 H           5.8886   38.7683    0.6121 H      46  UNL46       0.0241
    369 CL          8.9271   36.4196    4.2203 Cl     47  UNL47      -0.1257
    370 C           7.3846   35.5379    4.2203 C.3    47  UNL47       0.0198
    371 C           6.2201   36.5057    4.2203 C.3    47  UNL47      -0.0517
    372 H           7.3600   34.9008    3.3317 H      47  UNL47       0.0427
    373 H           7.3600   34.9008    5.1088 H      47  UNL47       0.0427
    374 H           5.2732   35.9564    4.2203 H      47  UNL47       0.0241
    375 H           6.2374   37.1469    5.1077 H      47  UNL47       0.0241
    376 H           6.2374   37.1469    3.3329 H      47  UNL47       0.0241
    377 CL         10.0644   -0.6216   -0.4698 Cl     48  UNL48      -0.1257
    378 C          11.1751    0.7651   -0.4698 C.3    48  UNL48       0.0198
    379 C          12.6137    0.2929   -0.4698 C.3    48  UNL48      -0.0517
    380 H          10.9639    1.3667   -1.3584 H      48  UNL48       0.0427
    381 H          10.9639    1.3667    0.4187 H      48  UNL48       0.0427
    382 H          13.2926    1.1516   -0.4698 H      48  UNL48       0.0241
    383 H          12.8332   -0.3098    0.4176 H      48  UNL48       0.0241
    384 H          12.8332   -0.3098   -1.3572 H      48  UNL48       0.0241
    385 CL         14.5900   -0.4826    1.4890 Cl     49  UNL49      -0.1257
    386 C          13.5570    0.9041    1.8971 C.3    49  UNL49       0.0198
    387 C          12.2190    0.4319    2.4256 C.3    49  UNL49      -0.0517
    388 H          14.0799    1.5057    2.6459 H      49  UNL49       0.0427
    389 H          13.4270    1.5057    0.9931 H      49  UNL49       0.0427
    390 H          11.5876    1.2906    2.6751 H      49  UNL49       0.0241
    391 H          11.6888   -0.1708    1.6810 H      49  UNL49       0.0241
    392 H          12.3409   -0.1708    3.3316 H      49  UNL49       0.0241
    393 CL         13.9053    3.9387    0.9344 Cl     50  UNL50      -0.1257
    394 C          12.3628    3.0570    0.9344 C.3    50  UNL50       0.0198
    395 C          11.1983    4.0248    0.9344 C.3    50  UNL50      -0.0517
    396 H          12.3382    2.4199    0.0458 H      50  UNL50       0.0427
    397 H          12.3382    2.4199    1.8229 H      50  UNL50       0.0427
    398 H          10.2514    3.4755    0.9344 H      50  UNL50       0.0241
    399 H          11.2156    4.6660    1.8218 H      50  UNL50       0.0241
    400 H          11.2156    4.6660    0.0470 H      50  UNL50       0.0241
    401 CL         14.2689    3.4001    4.6693 Cl     51  UNL51      -0.1257
    402 C          12.7264    2.5184    4.6693 C.3    51  UNL51       0.0198
    403 C          11.5619    3.4862    4.6693 C.3    51  UNL51      -0.0517
    404 H          12.7018    1.8813    3.7807 H      51  UNL51       0.0427
    405 H          12.7018    1.8813    5.5578 H      51  UNL51       0.0427
    406 H          10.6150    2.9369    4.6693 H      51  UNL51       0.0241
    407 H          11.5792    4.1274    5.5567 H      51  UNL51       0.0241
    408 H          11.5792    4.1274    3.7819 H      51  UNL51       0.0241
    409 CL         14.0468    7.2874    0.3465 Cl     52  UNL52      -0.1257
    410 C          12.5043    6.4057    0.3465 C.3    52  UNL52       0.0198
    411 C          11.3398    7.3735    0.3465 C.3    52  UNL52      -0.0517
    412 H          12.4797    5.7686   -0.5421 H      52  UNL52       0.0427
    413 H          12.4797    5.7686    1.2350 H      52  UNL52       0.0427
    414 H          10.3929    6.8242    0.3465 H      52  UNL52       0.0241
    415 H          11.3571    8.0147    1.2339 H      52  UNL52       0.0241
    416 H          11.3571    8.0147   -0.5409 H      52  UNL52       0.0241
    417 CL         12.3268    6.0027    3.7232 Cl     53  UNL53      -0.1257
    418 C          10.7843    6.4740    2.9780 C.3    53  UNL53       0.0198
    419 C           9.6198    5.9567    3.7959 C.3    53  UNL53      -0.0517
    420 H          10.7597    7.5655    2.9144 H      53  UNL53       0.0427
    421 H          10.7597    6.0635    1.9646 H      53  UNL53       0.0427
    422 H           8.6729    6.2503    3.3317 H      53  UNL53       0.0241
    423 H           9.6371    4.8640    3.8636 H      53  UNL53       0.0241
    424 H           9.6371    6.3641    4.8122 H      53  UNL53       0.0241
    425 CL         13.6024   10.8569   -0.6068 Cl     54  UNL54      -0.1257
    426 C          12.0599    9.9752   -0.6068 C.3    54  UNL54       0.0198
    427 C          10.8954   10.9430   -0.6068 C.3    54  UNL54      -0.0517
    428 H          12.0353    9.3381   -1.4954 H      54  UNL54       0.0427
    429 H          12.0353    9.3381    0.2817 H      54  UNL54       0.0427
    430 H           9.9485   10.3937   -0.6068 H      54  UNL54       0.0241
    431 H          10.9127   11.5842    0.2806 H      54  UNL54       0.0241
    432 H          10.9127   11.5842   -1.4942 H      54  UNL54       0.0241
    433 CL         13.7821    9.7734    3.5559 Cl     55  UNL55      -0.1257
    434 C          12.2396    8.8917    3.5559 C.3    55  UNL55       0.0198
    435 C          11.0751    9.8595    3.5559 C.3    55  UNL55      -0.0517
    436 H          12.2150    8.2546    2.6673 H      55  UNL55       0.0427
    437 H          12.2150    8.2546    4.4444 H      55  UNL55       0.0427
    438 H          10.1282    9.3102    3.5559 H      55  UNL55       0.0241
    439 H          11.0924   10.5007    4.4433 H      55  UNL55       0.0241
    440 H          11.0924   10.5007    2.6685 H      55  UNL55       0.0241
    441 CL         12.5717   11.0671    1.3555 Cl     56  UNL56      -0.1257
    442 C          12.7107   12.8377    1.3070 C.3    56  UNL56       0.0198
    443 C          11.3437   13.4737    1.1670 C.3    56  UNL56      -0.0517
    444 H          13.1978   13.1634    2.2305 H      56  UNL56       0.0427
    445 H          13.3509   13.1029    0.4610 H      56  UNL56       0.0427
    446 H          11.4363   14.5641    1.1378 H      56  UNL56       0.0241
    447 H          10.8497   13.1529    0.2440 H      56  UNL56       0.0241
    448 H          10.6969   13.2133    2.0112 H      56  UNL56       0.0241
    449 CL         14.0165   13.1577    4.1888 Cl     57  UNL57      -0.1257
    450 C          12.4740   12.2759    4.1888 C.3    57  UNL57       0.0198
    451 C          11.3095   13.2437    4.1888 C.3    57  UNL57      -0.0517
    452 H          12.4494   11.6389    3.3002 H      57  UNL57       0.0427
    453 H          12.4494   11.6389    5.0773 H      57  UNL57       0.0427
    454 H          10.3626   12.6945    4.1888 H      57  UNL57       0.0241
    455 H          11.3268   13.8850    5.0762 H      57  UNL57       0.0241
    456 H          11.3268   13.8850    3.3014 H      57  UNL57       0.0241
    457 CL         10.1088   15.9814    0.2886 Cl     58  UNL58      -0.1257
    458 C          11.5630   17.0021    0.2886 C.3    58  UNL58       0.0198
    459 C          12.8121   16.1463    0.2886 C.3    58  UNL58      -0.0517
    460 H          11.5285   17.6388   -0.6000 H      58  UNL58       0.0427
    461 H          11.5285   17.6388    1.1771 H      58  UNL58       0.0427
    462 H          13.7041   16.7810    0.2886 H      58  UNL58       0.0241
    463 H          12.8543   15.5063    1.1760 H      58  UNL58       0.0241
    464 H          12.8543   15.5063   -0.5988 H      58  UNL58       0.0241
    465 CL         13.2333   17.0242    3.3317 Cl     59  UNL59      -0.1257
    466 C          11.6908   16.1425    3.3317 C.3    59  UNL59       0.0198
    467 C          10.5263   17.1103    3.3317 C.3    59  UNL59      -0.0517
    468 H          11.6662   15.5054    2.4431 H      59  UNL59       0.0427
    469 H          11.6662   15.5054    4.2202 H      59  UNL59       0.0427
    470 H           9.5794   16.5610    3.3317 H      59  UNL59       0.0241
    471 H          10.5436   17.7515    4.2191 H      59  UNL59       0.0241
    472 H          10.5436   17.7515    2.4443 H      59  UNL59       0.0241
    473 CL         14.6656   19.7431   -0.0248 Cl     60  UNL60      -0.1257
    474 C          13.1231   19.3177    0.7475 C.3    60  UNL60       0.0198
    475 C          11.9585   19.7847   -0.1002 C.3    60  UNL60      -0.0517
    476 H          13.0984   18.2320    0.8768 H      60  UNL60       0.0427
    477 H          13.0984   19.7886    1.7342 H      60  UNL60       0.0427
    478 H          11.0117   19.5196    0.3809 H      60  UNL60       0.0241
    479 H          11.9759   20.8713   -0.2337 H      60  UNL60       0.0241
    480 H          11.9759   19.3167   -1.0900 H      60  UNL60       0.0241
    481 CL         12.3438   20.9428    3.1701 Cl     61  UNL61      -0.1257
    482 C          10.8013   20.0611    3.1701 C.3    61  UNL61       0.0198
    483 C           9.6368   21.0289    3.1701 C.3    61  UNL61      -0.0517
    484 H          10.7767   19.4240    2.2815 H      61  UNL61       0.0427
    485 H          10.7767   19.4240    4.0586 H      61  UNL61       0.0427
    486 H           8.6899   20.4796    3.1701 H      61  UNL61       0.0241
    487 H           9.6541   21.6701    4.0575 H      61  UNL61       0.0241
    488 H           9.6541   21.6701    2.2827 H      61  UNL61       0.0241
    489 CL         12.6206   22.5591    0.3255 Cl     62  UNL62      -0.1257
    490 C          11.0781   23.0303   -0.4197 C.3    62  UNL62       0.0198
    491 C           9.9136   22.5131    0.3982 C.3    62  UNL62      -0.0517
    492 H          11.0535   24.1219   -0.4833 H      62  UNL62       0.0427
    493 H          11.0535   22.6199   -1.4331 H      62  UNL62       0.0427
    494 H           8.9667   22.8066   -0.0660 H      62  UNL62       0.0241
    495 H           9.9309   21.4203    0.4659 H      62  UNL62       0.0241
    496 H           9.9309   22.9204    1.4145 H      62  UNL62       0.0241
    497 CL         13.0822   24.4640    3.2082 Cl     63  UNL63      -0.1257
    498 C          11.5397   23.5823    3.2082 C.3    63  UNL63       0.0198
    499 C          10.3752   24.5501    3.2082 C.3    63  UNL63      -0.0517
    500 H          11.5151   22.9452    2.3196 H      63  UNL63       0.0427
    501 H          11.5151   22.9452    4.0967 H      63  UNL63       0.0427
    502 H           9.4283   24.0008    3.2082 H      63  UNL63       0.0241
    503 H          10.3925   25.1913    4.0956 H      63  UNL63       0.0241
    504 H          10.3925   25.1913    2.3208 H      63  UNL63       0.0241
    505 CL         13.7757   26.4529    0.7204 Cl     64  UNL64      -0.1257
    506 C          12.2332   25.5712    0.7204 C.3    64  UNL64       0.0198
    507 C          11.0687   26.5390    0.7204 C.3    64  UNL64      -0.0517
    508 H          12.2086   24.9341   -0.1682 H      64  UNL64       0.0427
    509 H          12.2086   24.9341    1.6089 H      64  UNL64       0.0427
    510 H          10.1218   25.9897    0.7204 H      64  UNL64       0.0241
    511 H          11.0860   27.1802    1.6078 H      64  UNL64       0.0241
    512 H          11.0860   27.1802   -0.1670 H      64  UNL64       0.0241
    513 CL         13.7556   28.1062    3.3313 Cl     65  UNL65      -0.1257
    514 C          12.2131   27.2244    3.3313 C.3    65  UNL65       0.0198
    515 C          11.0486   28.1922    3.3313 C.3    65  UNL65      -0.0517
    516 H          12.1885   26.5874    2.4427 H      65  UNL65       0.0427
    517 H          12.1885   26.5874    4.2198 H      65  UNL65       0.0427
    518 H          10.1017   27.6430    3.3313 H      65  UNL65       0.0241
    519 H          11.0659   28.8335    4.2187 H      65  UNL65       0.0241
    520 H          11.0659   28.8335    2.4439 H      65  UNL65       0.0241
    521 CL         14.0937   29.6172    0.3862 Cl     66  UNL66      -0.1257
    522 C          12.5512   28.7355    0.3862 C.3    66  UNL66       0.0198
    523 C          11.3867   29.7033    0.3862 C.3    66  UNL66      -0.0517
    524 H          12.5266   28.0984   -0.5024 H      66  UNL66       0.0427
    525 H          12.5266   28.0984    1.2747 H      66  UNL66       0.0427
    526 H          10.4398   29.1540    0.3862 H      66  UNL66       0.0241
    527 H          11.4040   30.3445    1.2736 H      66  UNL66       0.0241
    528 H          11.4040   30.3445   -0.5012 H      66  UNL66       0.0241
    529 CL         14.1674   31.1668    3.3315 Cl     67  UNL67      -0.1257
    530 C          12.6249   30.2851    3.3315 C.3    67  UNL67       0.0198
    531 C          11.4604   31.2529    3.3315 C.3    67  UNL67      -0.0517
    532 H          12.6003   29.6480    2.4429 H      67  UNL67       0.0427
    533 H          12.6003   29.6480    4.2200 H      67  UNL67       0.0427
    534 H          10.5135   30.7036    3.3315 H      67  UNL67       0.0241
    535 H          11.4777   31.8941    4.2189 H      67  UNL67       0.0241
    536 H          11.4777   31.8941    2.4441 H      67  UNL67       0.0241
    537 CL         14.3715   32.9196    0.2903 Cl     68  UNL68      -0.1257
    538 C          12.8290   32.0379    0.2903 C.3    68  UNL68       0.0198
    539 C          11.6645   33.0057    0.2903 C.3    68  UNL68      -0.0517
    540 H          12.8044   31.4008   -0.5983 H      68  UNL68       0.0427
    541 H          12.8044   31.4008    1.1788 H      68  UNL68       0.0427
    542 H          10.7176   32.4564    0.2903 H      68  UNL68       0.0241
    543 H          11.6818   33.6469    1.1777 H      68  UNL68       0.0241
    544 H          11.6818   33.6469   -0.5971 H      68  UNL68       0.0241
    545 CL         13.6283   34.8285    3.5137 Cl     69  UNL69      -0.1257
    546 C          12.0858   33.9468    3.5137 C.3    69  UNL69       0.0198
    547 C          10.9213   34.9146    3.5137 C.3    69  UNL69      -0.0517
    548 H          12.0612   33.3097    2.6251 H      69  UNL69       0.0427
    549 H          12.0612   33.3097    4.4022 H      69  UNL69       0.0427
    550 H           9.9744   34.3653    3.5137 H      69  UNL69       0.0241
    551 H          10.9386   35.5558    4.4011 H      69  UNL69       0.0241
    552 H          10.9386   35.5558    2.6263 H      69  UNL69       0.0241
    553 CL         14.6525   36.0417    0.6236 Cl     70  UNL70      -0.1257
    554 C          13.1100   35.1600    0.6236 C.3    70  UNL70       0.0198
    555 C          11.9455   36.1278    0.6236 C.3    70  UNL70      -0.0517
    556 H          13.0854   34.5229   -0.2650 H      70  UNL70       0.0427
    557 H          13.0854   34.5229    1.5121 H      70  UNL70       0.0427
    558 H          10.9986   35.5785    0.6236 H      70  UNL70       0.0241
    559 H          11.9628   36.7690    1.5110 H      70  UNL70       0.0241
    560 H          11.9628   36.7690   -0.2638 H      70  UNL70       0.0241
    561 CL         15.0601   37.0047    4.7267 Cl     71  UNL71      -0.1257
    562 C          13.5176   37.4759    3.9815 C.3    71  UNL71       0.0198
    563 C          12.3530   36.9586    4.7994 C.3    71  UNL71      -0.0517
    564 H          13.4929   38.5674    3.9179 H      71  UNL71       0.0427
    565 H          13.4929   37.0654    2.9681 H      71  UNL71       0.0427
    566 H          11.4061   37.2522    4.3352 H      71  UNL71       0.0241
    567 H          12.3704   35.8659    4.8671 H      71  UNL71       0.0241
    568 H          12.3704   37.3660    5.8156 H      71  UNL71       0.0241
    569 CL         18.6952    0.4925   -0.6815 Cl     72  UNL72      -0.1257
    570 C          17.1527   -0.3892   -0.6815 C.3    72  UNL72       0.0198
    571 C          15.9882    0.5786   -0.6815 C.3    72  UNL72      -0.0517
    572 H          17.1281   -1.0263   -1.5701 H      72  UNL72       0.0427
    573 H          17.1281   -1.0263    0.2070 H      72  UNL72       0.0427
    574 H          15.0413    0.0293   -0.6815 H      72  UNL72       0.0241
    575 H          16.0055    1.2198    0.2059 H      72  UNL72       0.0241
    576 H          16.0055    1.2198   -1.5689 H      72  UNL72       0.0241
    577 CL         19.5622    1.4949    2.0385 Cl     73  UNL73      -0.1257
    578 C          18.0197    0.6132    2.0385 C.3    73  UNL73       0.0198
    579 C          16.8552    1.5810    2.0385 C.3    73  UNL73      -0.0517
    580 H          17.9951   -0.0239    1.1499 H      73  UNL73       0.0427
    581 H          17.9951   -0.0239    2.9270 H      73  UNL73       0.0427
    582 H          15.9083    1.0317    2.0385 H      73  UNL73       0.0241
    583 H          16.8725    2.2222    2.9259 H      73  UNL73       0.0241
    584 H          16.8725    2.2222    1.1511 H      73  UNL73       0.0241
    585 CL         19.7555    4.5936    0.9036 Cl     74  UNL74      -0.1257
    586 C          18.2130    3.7119    0.9036 C.3    74  UNL74       0.0198
    587 C          17.0485    4.6797    0.9036 C.3    74  UNL74      -0.0517
    588 H          18.1884    3.0748    0.0150 H      74  UNL74       0.0427
    589 H          18.1884    3.0748    1.7921 H      74  UNL74       0.0427
    590 H          16.1016    4.1304    0.9036 H      74  UNL74       0.0241
    591 H          17.0658    5.3209    1.7910 H      74  UNL74       0.0241
    592 H          17.0658    5.3209    0.0162 H      74  UNL74       0.0241
    593 CL         20.0659    7.5979    1.1831 Cl     75  UNL75      -0.1257
    594 C          18.5234    6.7162    1.1831 C.3    75  UNL75       0.0198
    595 C          17.3589    7.6840    1.1831 C.3    75  UNL75      -0.0517
    596 H          18.4988    6.0791    0.2945 H      75  UNL75       0.0427
    597 H          18.4988    6.0791    2.0716 H      75  UNL75       0.0427
    598 H          16.4120    7.1347    1.1831 H      75  UNL75       0.0241
    599 H          17.3762    8.3252    2.0705 H      75  UNL75       0.0241
    600 H          17.3762    8.3252    0.2957 H      75  UNL75       0.0241
    601 CL         17.5265    7.0266    3.7423 Cl     76  UNL76      -0.1257
    602 C          15.9840    7.4978    4.4875 C.3    76  UNL76       0.0198
    603 C          14.8195    6.9806    3.6695 C.3    76  UNL76      -0.0517
    604 H          15.9594    7.0873    5.5009 H      76  UNL76       0.0427
    605 H          15.9594    8.5893    4.5511 H      76  UNL76       0.0427
    606 H          13.8726    7.2742    4.1338 H      76  UNL76       0.0241
    607 H          14.8368    7.3879    2.6533 H      76  UNL76       0.0241
    608 H          14.8368    5.8879    3.6018 H      76  UNL76       0.0241
    609 CL         18.4327    9.8076    0.7438 Cl     77  UNL77      -0.1257
    610 C          16.8902   10.2788    1.4890 C.3    77  UNL77       0.0198
    611 C          15.7257    9.7615    0.6710 C.3    77  UNL77      -0.0517
    612 H          16.8656    9.8682    2.5024 H      77  UNL77       0.0427
    613 H          16.8656   11.3702    1.5526 H      77  UNL77       0.0427
    614 H          14.7788   10.0551    1.1353 H      77  UNL77       0.0241
    615 H          15.7430   10.1689   -0.3452 H      77  UNL77       0.0241
    616 H          15.7430    8.6688    0.6033 H      77  UNL77       0.0241
    617 CL         18.6217   11.3181    4.9043 Cl     78  UNL78      -0.1257
    618 C          17.0792   10.4364    4.9043 C.3    78  UNL78       0.0198
    619 C          15.9147   11.4042    4.9043 C.3    78  UNL78      -0.0517
    620 H          17.0546    9.7993    4.0157 H      78  UNL78       0.0427
    621 H          17.0546    9.7993    5.7928 H      78  UNL78       0.0427
    622 H          14.9678   10.8549    4.9043 H      78  UNL78       0.0241
    623 H          15.9320   12.0454    5.7917 H      78  UNL78       0.0241
    624 H          15.9320   12.0454    4.0169 H      78  UNL78       0.0241
    625 CL         18.6021   14.2249    2.0353 Cl     79  UNL79      -0.1257
    626 C          17.0596   13.3432    2.0353 C.3    79  UNL79       0.0198
    627 C          15.8951   14.3110    2.0353 C.3    79  UNL79      -0.0517
    628 H          17.0350   12.7061    1.1467 H      79  UNL79       0.0427
    629 H          17.0350   12.7061    2.9238 H      79  UNL79       0.0427
    630 H          14.9482   13.7617    2.0353 H      79  UNL79       0.0241
    631 H          15.9124   14.9522    2.9227 H      79  UNL79       0.0241
    632 H          15.9124   14.9522    1.1479 H      79  UNL79       0.0241
    633 CL         18.9314   15.4729    4.8210 Cl     80  UNL80      -0.1257
    634 C          17.3889   15.9442    4.0758 C.3    80  UNL80       0.0198
    635 C          16.2244   15.4269    4.8938 C.3    80  UNL80      -0.0517
    636 H          17.3643   17.0357    4.0123 H      80  UNL80       0.0427
    637 H          17.3643   15.5337    3.0625 H      80  UNL80       0.0427
    638 H          15.2775   15.7205    4.4296 H      80  UNL80       0.0241
    639 H          16.2417   14.3342    4.9615 H      80  UNL80       0.0241
    640 H          16.2417   15.8343    5.9100 H      80  UNL80       0.0241
    641 CL         18.5339   17.4430    1.7836 Cl     81  UNL81      -0.1257
    642 C          16.9914   17.9142    1.0384 C.3    81  UNL81       0.0198
    643 C          15.8269   17.3970    1.8564 C.3    81  UNL81      -0.0517
    644 H          16.9668   19.0057    0.9748 H      81  UNL81       0.0427
    645 H          16.9668   17.5037    0.0250 H      81  UNL81       0.0427
    646 H          14.8800   17.6905    1.3921 H      81  UNL81       0.0241
    647 H          15.8442   16.3042    1.9240 H      81  UNL81       0.0241
    648 H          15.8442   17.8043    2.8726 H      81  UNL81       0.0241
    649 CL         16.6884   19.0085    4.9685 Cl     82  UNL82      -0.1257
    650 C          15.1458   18.1268    4.9685 C.3    82  UNL82       0.0198
    651 C          13.9813   19.0946    4.9685 C.3    82  UNL82      -0.0517
    652 H          15.1212   17.4897    4.0799 H      82  UNL82       0.0427
    653 H          15.1212   17.4897    5.8570 H      82  UNL82       0.0427
    654 H          13.0344   18.5453    4.9685 H      82  UNL82       0.0241
    655 H          13.9986   19.7358    5.8559 H      82  UNL82       0.0241
    656 H          13.9986   19.7358    4.0811 H      82  UNL82       0.0241
    657 CL         18.0708   21.9306    1.6770 Cl     83  UNL83      -0.1257
    658 C          16.5283   21.0489    1.6770 C.3    83  UNL83       0.0198
    659 C          15.3638   22.0167    1.6770 C.3    83  UNL83      -0.0517
    660 H          16.5037   20.4118    0.7884 H      83  UNL83       0.0427
    661 H          16.5037   20.4118    2.5655 H      83  UNL83       0.0427
    662 H          14.4169   21.4674    1.6770 H      83  UNL83       0.0241
    663 H          15.3811   22.6579    2.5644 H      83  UNL83       0.0241
    664 H          15.3811   22.6579    0.7896 H      83  UNL83       0.0241
    665 CL         17.1139   22.3451    4.7618 Cl     84  UNL84      -0.1257
    666 C          15.5714   21.4634    4.7618 C.3    84  UNL84       0.0198
    667 C          14.4069   22.4312    4.7618 C.3    84  UNL84      -0.0517
    668 H          15.5468   20.8263    3.8732 H      84  UNL84       0.0427
    669 H          15.5468   20.8263    5.6503 H      84  UNL84       0.0427
    670 H          13.4600   21.8819    4.7618 H      84  UNL84       0.0241
    671 H          14.4242   23.0724    5.6492 H      84  UNL84       0.0241
    672 H          14.4242   23.0724    3.8744 H      84  UNL84       0.0241
    673 CL         18.6497   25.0849    1.4294 Cl     85  UNL85      -0.1257
    674 C          17.1072   24.2032    1.4294 C.3    85  UNL85       0.0198
    675 C          15.9427   25.1710    1.4294 C.3    85  UNL85      -0.0517
    676 H          17.0826   23.5661    0.5408 H      85  UNL85       0.0427
    677 H          17.0826   23.5661    2.3179 H      85  UNL85       0.0427
    678 H          14.9958   24.6217    1.4294 H      85  UNL85       0.0241
    679 H          15.9600   25.8122    2.3168 H      85  UNL85       0.0241
    680 H          15.9600   25.8122    0.5420 H      85  UNL85       0.0241
    681 CL         17.7455   25.1897    4.6524 Cl     86  UNL86      -0.1257
    682 C          16.2030   24.3080    4.6524 C.3    86  UNL86       0.0198
    683 C          15.0385   25.2758    4.6524 C.3    86  UNL86      -0.0517
    684 H          16.1784   23.6709    3.7638 H      86  UNL86       0.0427
    685 H          16.1784   23.6709    5.5409 H      86  UNL86       0.0427
    686 H          14.0916   24.7265    4.6524 H      86  UNL86       0.0241
    687 H          15.0558   25.9170    5.5398 H      86  UNL86       0.0241
    688 H          15.0558   25.9170    3.7650 H      86  UNL86       0.0241
    689 CL         19.0235   28.1817    1.4399 Cl     87  UNL87      -0.1257
    690 C          17.4810   27.3000    1.4399 C.3    87  UNL87       0.0198
    691 C          16.3165   28.2678    1.4399 C.3    87  UNL87      -0.0517
    692 H          17.4564   26.6629    0.5513 H      87  UNL87       0.0427
    693 H          17.4564   26.6629    2.3284 H      87  UNL87       0.0427
    694 H          15.3696   27.7185    1.4399 H      87  UNL87       0.0241
    695 H          16.3338   28.9090    2.3273 H      87  UNL87       0.0241
    696 H          16.3338   28.9090    0.5525 H      87  UNL87       0.0241
    697 CL         18.3210   27.6428    4.6385 Cl     88  UNL88      -0.1257
    698 C          16.7785   26.7611    4.6385 C.3    88  UNL88       0.0198
    699 C          15.6139   27.7289    4.6385 C.3    88  UNL88      -0.0517
    700 H          16.7539   26.1240    3.7499 H      88  UNL88       0.0427
    701 H          16.7539   26.1240    5.5270 H      88  UNL88       0.0427
    702 H          14.6670   27.1796    4.6385 H      88  UNL88       0.0241
    703 H          15.6312   28.3701    5.5259 H      88  UNL88       0.0241
    704 H          15.6312   28.3701    3.7511 H      88  UNL88       0.0241
    705 CL         19.3421   31.2235    1.4735 Cl     89  UNL89      -0.1257
    706 C          17.7996   30.3418    1.4735 C.3    89  UNL89       0.0198
    707 C          16.6351   31.3096    1.4735 C.3    89  UNL89      -0.0517
    708 H          17.7750   29.7047    0.5849 H      89  UNL89       0.0427
    709 H          17.7750   29.7047    2.3620 H      89  UNL89       0.0427
    710 H          15.6882   30.7603    1.4735 H      89  UNL89       0.0241
    711 H          16.6524   31.9508    2.3609 H      89  UNL89       0.0241
    712 H          16.6524   31.9508    0.5861 H      89  UNL89       0.0241
    713 CL         18.8611   30.2114    4.7019 Cl     90  UNL90      -0.1257
    714 C          17.3186   29.3297    4.7019 C.3    90  UNL90       0.0198
    715 C          16.1541   30.2975    4.7019 C.3    90  UNL90      -0.0517
    716 H          17.2940   28.6926    3.8133 H      90  UNL90       0.0427
    717 H          17.2940   28.6926    5.5904 H      90  UNL90       0.0427
    718 H          15.2072   29.7482    4.7019 H      90  UNL90       0.0241
    719 H          16.1714   30.9387    5.5893 H      90  UNL90       0.0241
    720 H          16.1714   30.9387    3.8145 H      90  UNL90       0.0241
    721 CL         19.6042   34.3649    1.7636 Cl     91  UNL91      -0.1257
    722 C          18.0617   33.4832    1.7636 C.3    91  UNL91       0.0198
    723 C          16.8972   34.4510    1.7636 C.3    91  UNL91      -0.0517
    724 H          18.0371   32.8461    0.8750 H      91  UNL91       0.0427
    725 H          18.0371   32.8461    2.6521 H      91  UNL91       0.0427
    726 H          15.9503   33.9017    1.7636 H      91  UNL91       0.0241
    727 H          16.9145   35.0922    2.6510 H      91  UNL91       0.0241
    728 H          16.9145   35.0922    0.8762 H      91  UNL91       0.0241
    729 CL         19.2371   32.9196    4.7275 Cl     92  UNL92      -0.1257
    730 C          17.6945   32.0379    4.7275 C.3    92  UNL92       0.0198
    731 C          16.5300   33.0057    4.7275 C.3    92  UNL92      -0.0517
    732 H          17.6699   31.4008    3.8389 H      92  UNL92       0.0427
    733 H          17.6699   31.4008    5.6160 H      92  UNL92       0.0427
    734 H          15.5831   32.4564    4.7275 H      92  UNL92       0.0241
    735 H          16.5474   33.6469    5.6149 H      92  UNL92       0.0241
    736 H          16.5474   33.6469    3.8401 H      92  UNL92       0.0241
    737 CL         18.1761   38.2797    1.2016 Cl     93  UNL93      -0.1257
    738 C          16.6336   37.3980    1.2016 C.3    93  UNL93       0.0198
    739 C          15.4691   38.3658    1.2016 C.3    93  UNL93      -0.0517
    740 H          16.6090   36.7609    0.3130 H      93  UNL93       0.0427
    741 H          16.6090   36.7609    2.0901 H      93  UNL93       0.0427
    742 H          14.5222   37.8165    1.2016 H      93  UNL93       0.0241
    743 H          15.4864   39.0070    2.0890 H      93  UNL93       0.0241
    744 H          15.4864   39.0070    0.3142 H      93  UNL93       0.0241
    745 CL         19.6715   35.7783    4.7486 Cl     94  UNL94      -0.1257
    746 C          18.1290   34.8966    4.7486 C.3    94  UNL94       0.0198
    747 C          16.9645   35.8644    4.7486 C.3    94  UNL94      -0.0517
    748 H          18.1044   34.2595    3.8600 H      94  UNL94       0.0427
    749 H          18.1044   34.2595    5.6371 H      94  UNL94       0.0427
    750 H          16.0176   35.3151    4.7486 H      94  UNL94       0.0241
    751 H          16.9818   36.5056    5.6360 H      94  UNL94       0.0241
    752 H          16.9818   36.5056    3.8612 H      94  UNL94       0.0241
    753 CL         24.5336    0.8436    0.0372 Cl     95  UNL95      -0.1257
    754 C          22.9911   -0.0381    0.0372 C.3    95  UNL95       0.0198
    755 C          21.8266    0.9297    0.0372 C.3    95  UNL95      -0.0517
    756 H          22.9665   -0.6752   -0.8514 H      95  UNL95       0.0427
    757 H          22.9665   -0.6752    0.9257 H      95  UNL95       0.0427
    758 H          20.8797    0.3804    0.0372 H      95  UNL95       0.0241
    759 H          21.8439    1.5709    0.9246 H      95  UNL95       0.0241
    760 H          21.8439    1.5709   -0.8502 H      95  UNL95       0.0241
    761 CL         25.0610    0.8880    3.0112 Cl     96  UNL96      -0.1257
    762 C          23.5185    0.4626    3.7834 C.3    96  UNL96       0.0198
    763 C          22.3540    0.9295    2.9357 C.3    96  UNL96      -0.0517
    764 H          23.4939   -0.6232    3.9128 H      96  UNL96       0.0427
    765 H          23.4939    0.9334    4.7702 H      96  UNL96       0.0427
    766 H          21.4071    0.6645    3.4169 H      96  UNL96       0.0241
    767 H          22.3713    2.0161    2.8022 H      96  UNL96       0.0241
    768 H          22.3713    0.4616    1.9460 H      96  UNL96       0.0241
    769 CL         24.7303    4.2019   -0.4377 Cl     97  UNL97      -0.1257
    770 C          23.1878    3.3202   -0.4377 C.3    97  UNL97       0.0198
    771 C          22.0233    4.2880   -0.4377 C.3    97  UNL97      -0.0517
    772 H          23.1632    2.6831   -1.3263 H      97  UNL97       0.0427
    773 H          23.1632    2.6831    0.4508 H      97  UNL97       0.0427
    774 H          21.0764    3.7387   -0.4377 H      97  UNL97       0.0241
    775 H          22.0406    4.9292    0.4497 H      97  UNL97       0.0241
    776 H          22.0406    4.9292   -1.3251 H      97  UNL97       0.0241
    777 CL         22.1517    2.6336    4.5942 Cl     98  UNL98      -0.1257
    778 C          23.1738    3.9382    3.9538 C.3    98  UNL98       0.0198
    779 C          22.4445    4.6987    2.8664 C.3    98  UNL98      -0.0517
    780 H          23.4341    4.6013    4.7837 H      98  UNL98       0.0427
    781 H          24.0912    3.4880    3.5644 H      98  UNL98       0.0427
    782 H          23.0793    5.5007    2.4763 H      98  UNL98       0.0241
    783 H          22.1810    4.0414    2.0313 H      98  UNL98       0.0241
    784 H          21.5248    5.1533    3.2491 H      98  UNL98       0.0241
    785 CL         25.3436    7.4616   -0.1684 Cl     99  UNL99      -0.1257
    786 C          23.8011    6.5799   -0.1684 C.3    99  UNL99       0.0198
    787 C          22.6366    7.5477   -0.1684 C.3    99  UNL99      -0.0517
    788 H          23.7765    5.9428   -1.0570 H      99  UNL99       0.0427
    789 H          23.7765    5.9428    0.7201 H      99  UNL99       0.0427
    790 H          21.6897    6.9984   -0.1684 H      99  UNL99       0.0241
    791 H          22.6539    8.1889    0.7190 H      99  UNL99       0.0241
    792 H          22.6539    8.1889   -1.0558 H      99  UNL99       0.0241
    793 CL         23.1205    8.2173    3.4891 Cl    100  UNL100     -0.1257
    794 C          21.5780    7.3356    3.4891 C.3   100  UNL100      0.0198
    795 C          20.4135    8.3034    3.4891 C.3   100  UNL100     -0.0517
    796 H          21.5534    6.6985    2.6005 H     100  UNL100      0.0427
    797 H          21.5534    6.6985    4.3776 H     100  UNL100      0.0427
    798 H          19.4666    7.7541    3.4891 H     100  UNL100      0.0241
    799 H          20.4308    8.9446    4.3765 H     100  UNL100      0.0241
    800 H          20.4308    8.9446    2.6017 H     100  UNL100      0.0241
    801 CL         23.7473   11.2786   -0.5636 Cl    101  UNL101     -0.1257
    802 C          22.2048   10.3969   -0.5636 C.3   101  UNL101      0.0198
    803 C          21.0403   11.3647   -0.5636 C.3   101  UNL101     -0.0517
    804 H          22.1802    9.7598   -1.4522 H     101  UNL101      0.0427
    805 H          22.1802    9.7598    0.3249 H     101  UNL101      0.0427
    806 H          20.0934   10.8154   -0.5636 H     101  UNL101      0.0241
    807 H          21.0576   12.0059    0.3238 H     101  UNL101      0.0241
    808 H          21.0576   12.0059   -1.4510 H     101  UNL101      0.0241
    809 CL         23.5296   11.1884    3.4358 Cl    102  UNL102     -0.1257
    810 C          21.9871   10.3067    3.4358 C.3   102  UNL102      0.0198
    811 C          20.8226   11.2745    3.4358 C.3   102  UNL102     -0.0517
    812 H          21.9625    9.6696    2.5472 H     102  UNL102      0.0427
    813 H          21.9625    9.6696    4.3243 H     102  UNL102      0.0427
    814 H          19.8757   10.7252    3.4358 H     102  UNL102      0.0241
    815 H          20.8399   11.9157    4.3232 H     102  UNL102      0.0241
    816 H          20.8399   11.9157    2.5484 H     102  UNL102      0.0241
    817 CL         22.6543   11.6979    1.3121 Cl    103  UNL103     -0.1257
    818 C          22.7933   13.4685    1.2636 C.3   103  UNL103      0.0198
    819 C          21.4264   14.1045    1.1237 C.3   103  UNL103     -0.0517
    820 H          23.2804   13.7942    2.1871 H     103  UNL103      0.0427
    821 H          23.4335   13.7337    0.4176 H     103  UNL103      0.0427
    822 H          21.5190   15.1949    1.0944 H     103  UNL103      0.0241
    823 H          20.9323   13.7837    0.2007 H     103  UNL103      0.0241
    824 H          20.7795   13.8441    1.9678 H     103  UNL103      0.0241
    825 CL         23.7632   14.2326    4.0698 Cl    104  UNL104     -0.1257
    826 C          22.2207   13.3509    4.0698 C.3   104  UNL104      0.0198
    827 C          21.0562   14.3187    4.0698 C.3   104  UNL104     -0.0517
    828 H          22.1961   12.7138    3.1812 H     104  UNL104      0.0427
    829 H          22.1961   12.7138    4.9583 H     104  UNL104      0.0427
    830 H          20.1093   13.7694    4.0698 H     104  UNL104      0.0241
    831 H          21.0735   14.9599    4.9572 H     104  UNL104      0.0241
    832 H          21.0735   14.9599    3.1824 H     104  UNL104      0.0241
    833 CL         20.0212   15.6319   -0.1196 Cl    105  UNL105     -0.1257
    834 C          21.0064   17.1104   -0.1196 C.3   105  UNL105      0.0198
    835 C          22.4808   16.7656   -0.1196 C.3   105  UNL105     -0.0517
    836 H          20.7435   17.6912   -1.0082 H     105  UNL105      0.0427
    837 H          20.7435   17.6912    0.7689 H     105  UNL105      0.0427
    838 H          23.0821   17.6804   -0.1196 H     105  UNL105      0.0241
    839 H          22.7521   16.1843    0.7678 H     105  UNL105      0.0241
    840 H          22.7521   16.1843   -1.0070 H     105  UNL105      0.0241
    841 CL         23.4995   17.6693    3.3318 Cl    106  UNL106     -0.1257
    842 C          21.9570   16.7876    3.3318 C.3   106  UNL106      0.0198
    843 C          20.7925   17.7554    3.3318 C.3   106  UNL106     -0.0517
    844 H          21.9324   16.1505    2.4432 H     106  UNL106      0.0427
    845 H          21.9324   16.1505    4.2203 H     106  UNL106      0.0427
    846 H          19.8456   17.2061    3.3318 H     106  UNL106      0.0241
    847 H          20.8098   18.3966    4.2192 H     106  UNL106      0.0241
    848 H          20.8098   18.3966    2.4444 H     106  UNL106      0.0241
    849 CL         23.6465   20.3368   -0.4546 Cl    107  UNL107     -0.1257
    850 C          22.1040   19.9114    0.3177 C.3   107  UNL107      0.0198
    851 C          20.9395   20.3783   -0.5300 C.3   107  UNL107     -0.0517
    852 H          22.0794   18.8257    0.4470 H     107  UNL107      0.0427
    853 H          22.0794   20.3823    1.3044 H     107  UNL107      0.0427
    854 H          19.9926   20.1133   -0.0489 H     107  UNL107      0.0241
    855 H          20.9568   21.4650   -0.6635 H     107  UNL107      0.0241
    856 H          20.9568   19.9104   -1.5198 H     107  UNL107      0.0241
    857 CL         23.7122   20.8134    3.3315 Cl    108  UNL108     -0.1257
    858 C          22.1697   19.9317    3.3315 C.3   108  UNL108      0.0198
    859 C          21.0052   20.8995    3.3315 C.3   108  UNL108     -0.0517
    860 H          22.1451   19.2946    2.4429 H     108  UNL108      0.0427
    861 H          22.1451   19.2946    4.2200 H     108  UNL108      0.0427
    862 H          20.0583   20.3502    3.3315 H     108  UNL108      0.0241
    863 H          21.0225   21.5407    4.2189 H     108  UNL108      0.0241
    864 H          21.0225   21.5407    2.4441 H     108  UNL108      0.0241
    865 CL         22.7054   22.8792    0.5101 Cl    109  UNL109     -0.1257
    866 C          21.1629   23.3505   -0.2351 C.3   109  UNL109      0.0198
    867 C          19.9984   22.8332    0.5828 C.3   109  UNL109     -0.0517
    868 H          21.1383   24.4420   -0.2987 H     109  UNL109      0.0427
    869 H          21.1383   22.9400   -1.2485 H     109  UNL109      0.0427
    870 H          19.0515   23.1268    0.1186 H     109  UNL109      0.0241
    871 H          20.0157   21.7405    0.6505 H     109  UNL109      0.0241
    872 H          20.0157   23.2406    1.5991 H     109  UNL109      0.0241
    873 CL         23.7176   24.3927    3.3154 Cl    110  UNL110     -0.1257
    874 C          22.1751   23.5110    3.3154 C.3   110  UNL110      0.0198
    875 C          21.0106   24.4788    3.3154 C.3   110  UNL110     -0.0517
    876 H          22.1505   22.8739    2.4268 H     110  UNL110      0.0427
    877 H          22.1505   22.8739    4.2039 H     110  UNL110      0.0427
    878 H          20.0637   23.9295    3.3154 H     110  UNL110      0.0241
    879 H          21.0279   25.1200    4.2028 H     110  UNL110      0.0241
    880 H          21.0279   25.1200    2.4280 H     110  UNL110      0.0241
    881 CL         24.0653   26.6220    0.6769 Cl    111  UNL111     -0.1257
    882 C          22.5228   25.7403    0.6769 C.3   111  UNL111      0.0198
    883 C          21.3583   26.7081    0.6769 C.3   111  UNL111     -0.0517
    884 H          22.4982   25.1032   -0.2117 H     111  UNL111      0.0427
    885 H          22.4982   25.1032    1.5654 H     111  UNL111      0.0427
    886 H          20.4114   26.1588    0.6769 H     111  UNL111      0.0241
    887 H          21.3756   27.3493    1.5643 H     111  UNL111      0.0241
    888 H          21.3756   27.3493   -0.2105 H     111  UNL111      0.0241
    889 CL         23.9857   27.9358    3.7188 Cl    112  UNL112     -0.1257
    890 C          22.4432   27.0541    3.7188 C.3   112  UNL112      0.0198
    891 C          21.2787   28.0219    3.7188 C.3   112  UNL112     -0.0517
    892 H          22.4186   26.4170    2.8302 H     112  UNL112      0.0427
    893 H          22.4186   26.4170    4.6073 H     112  UNL112      0.0427
    894 H          20.3318   27.4726    3.7188 H     112  UNL112      0.0241
    895 H          21.2960   28.6631    4.6062 H     112  UNL112      0.0241
    896 H          21.2960   28.6631    2.8314 H     112  UNL112      0.0241
    897 CL         24.4042   29.8148    0.7171 Cl    113  UNL113     -0.1257
    898 C          22.8617   28.9331    0.7171 C.3   113  UNL113      0.0198
    899 C          21.6972   29.9009    0.7171 C.3   113  UNL113     -0.0517
    900 H          22.8371   28.2960   -0.1715 H     113  UNL113      0.0427
    901 H          22.8371   28.2960    1.6056 H     113  UNL113      0.0427
    902 H          20.7503   29.3516    0.7171 H     113  UNL113      0.0241
    903 H          21.7145   30.5421    1.6045 H     113  UNL113      0.0241
    904 H          21.7145   30.5421   -0.1703 H     113  UNL113      0.0241
    905 CL         24.4095   31.0739    3.8432 Cl    114  UNL114     -0.1257
    906 C          22.8670   30.1922    3.8432 C.3   114  UNL114      0.0198
    907 C          21.7025   31.1600    3.8432 C.3   114  UNL114     -0.0517
    908 H          22.8424   29.5551    2.9546 H     114  UNL114      0.0427
    909 H          22.8424   29.5551    4.7317 H     114  UNL114      0.0427
    910 H          20.7556   30.6107    3.8432 H     114  UNL114      0.0241
    911 H          21.7198   31.8012    4.7306 H     114  UNL114      0.0241
    912 H          21.7198   31.8012    2.9558 H     114  UNL114      0.0241
    913 CL         24.7231   33.0054    0.4718 Cl    115  UNL115     -0.1257
    914 C          23.1806   32.1237    0.4718 C.3   115  UNL115      0.0198
    915 C          22.0161   33.0915    0.4718 C.3   115  UNL115     -0.0517
    916 H          23.1560   31.4866   -0.4167 H     115  UNL115      0.0427
    917 H          23.1560   31.4866    1.3603 H     115  UNL115      0.0427
    918 H          21.0692   32.5422    0.4718 H     115  UNL115      0.0241
    919 H          22.0334   33.7327    1.3592 H     115  UNL115      0.0241
    920 H          22.0334   33.7327   -0.4156 H     115  UNL115      0.0241
    921 CL         24.9403   34.0175    3.9746 Cl    116  UNL116     -0.1257
    922 C          23.3978   33.1358    3.9746 C.3   116  UNL116      0.0198
    923 C          22.2333   34.1036    3.9746 C.3   116  UNL116     -0.0517
    924 H          23.3732   32.4987    3.0860 H     116  UNL116      0.0427
    925 H          23.3732   32.4987    4.8632 H     116  UNL116      0.0427
    926 H          21.2864   33.5543    3.9746 H     116  UNL116      0.0241
    927 H          22.2506   34.7448    4.8621 H     116  UNL116      0.0241
    928 H          22.2506   34.7448    3.0872 H     116  UNL116      0.0241
    929 CL         22.9897   36.7840    1.1124 Cl    117  UNL117     -0.1257
    930 C          21.4472   35.9023    1.1124 C.3   117  UNL117      0.0198
    931 C          20.2827   36.8701    1.1124 C.3   117  UNL117     -0.0517
    932 H          21.4226   35.2652    0.2238 H     117  UNL117      0.0427
    933 H          21.4226   35.2652    2.0009 H     117  UNL117      0.0427
    934 H          19.3358   36.3208    1.1124 H     117  UNL117      0.0241
    935 H          20.3000   37.5113    1.9998 H     117  UNL117      0.0241
    936 H          20.3000   37.5113    0.2250 H     117  UNL117      0.0241
    937 CL         23.1367   38.0872    3.7463 Cl    118  UNL118     -0.1257
    938 C          21.5942   37.2055    3.7463 C.3   118  UNL118      0.0198
    939 C          20.4297   38.1733    3.7463 C.3   118  UNL118     -0.0517
    940 H          21.5696   36.5684    2.8577 H     118  UNL118      0.0427
    941 H          21.5696   36.5684    4.6348 H     118  UNL118      0.0427
    942 H          19.4828   37.6240    3.7463 H     118  UNL118      0.0241
    943 H          20.4470   38.8145    4.6337 H     118  UNL118      0.0241
    944 H          20.4470   38.8145    2.8589 H     118  UNL118      0.0241
    945 CL         26.6597   -0.1003    0.9098 Cl    119  UNL119     -0.1257
    946 C          27.7704    1.2865    0.9098 C.3   119  UNL119      0.0198
    947 C          29.2090    0.8142    0.9098 C.3   119  UNL119     -0.0517
    948 H          27.5592    1.8881    0.0212 H     119  UNL119      0.0427
    949 H          27.5592    1.8881    1.7983 H     119  UNL119      0.0427
    950 H          29.8878    1.6730    0.9098 H     119  UNL119      0.0241
    951 H          29.4285    0.2115    1.7972 H     119  UNL119      0.0241
    952 H          29.4285    0.2115    0.0224 H     119  UNL119      0.0241
    953 CL         29.6487    5.0054    1.4668 Cl    120  UNL120     -0.1257
    954 C          28.1062    4.1237    1.4668 C.3   120  UNL120      0.0198
    955 C          26.9417    5.0915    1.4668 C.3   120  UNL120     -0.0517
    956 H          28.0816    3.4866    0.5782 H     120  UNL120      0.0427
    957 H          28.0816    3.4866    2.3553 H     120  UNL120      0.0427
    958 H          25.9948    4.5422    1.4668 H     120  UNL120      0.0241
    959 H          26.9590    5.7327    2.3542 H     120  UNL120      0.0241
    960 H          26.9590    5.7327    0.5794 H     120  UNL120      0.0241
    961 CL         24.7584    7.0830    2.1277 Cl    121  UNL121     -0.1257
    962 C          25.8691    8.4698    2.1277 C.3   121  UNL121      0.0198
    963 C          27.3077    7.9976    2.1277 C.3   121  UNL121     -0.0517
    964 H          25.6579    9.0714    1.2391 H     121  UNL121      0.0427
    965 H          25.6579    9.0714    3.0162 H     121  UNL121      0.0427
    966 H          27.9866    8.8563    2.1277 H     121  UNL121      0.0241
    967 H          27.5272    7.3948    3.0151 H     121  UNL121      0.0241
    968 H          27.5272    7.3948    1.2403 H     121  UNL121      0.0241
    969 CL         27.7055    7.1131    5.0569 Cl    122  UNL122     -0.1257
    970 C          26.1630    6.2314    5.0569 C.3   122  UNL122      0.0198
    971 C          24.9985    7.1992    5.0569 C.3   122  UNL122     -0.0517
    972 H          26.1384    5.5943    4.1683 H     122  UNL122      0.0427
    973 H          26.1384    5.5943    5.9454 H     122  UNL122      0.0427
    974 H          24.0516    6.6499    5.0569 H     122  UNL122      0.0241
    975 H          25.0158    7.8404    5.9443 H     122  UNL122      0.0241
    976 H          25.0158    7.8404    4.1695 H     122  UNL122      0.0241
    977 CL         28.4489   11.8533    1.6456 Cl    123  UNL123     -0.1257
    978 C          26.9064   10.9716    1.6456 C.3   123  UNL123      0.0198
    979 C          25.7419   11.9394    1.6456 C.3   123  UNL123     -0.0517
    980 H          26.8818   10.3345    0.7569 H     123  UNL123      0.0427
    981 H          26.8818   10.3345    2.5341 H     123  UNL123      0.0427
    982 H          24.7950   11.3901    1.6456 H     123  UNL123      0.0241
    983 H          25.7592   12.5806    2.5330 H     123  UNL123      0.0241
    984 H          25.7592   12.5806    0.7581 H     123  UNL123      0.0241
    985 CL         28.3140   10.4200    4.9932 Cl    124  UNL124     -0.1257
    986 C          26.7715    9.5383    4.9932 C.3   124  UNL124      0.0198
    987 C          25.6070   10.5061    4.9932 C.3   124  UNL124     -0.0517
    988 H          26.7469    8.9012    4.1046 H     124  UNL124      0.0427
    989 H          26.7469    8.9012    5.8817 H     124  UNL124      0.0427
    990 H          24.6601    9.9568    4.9932 H     124  UNL124      0.0241
    991 H          25.6243   11.1473    5.8806 H     124  UNL124      0.0241
    992 H          25.6243   11.1473    4.1058 H     124  UNL124      0.0241
    993 CL         27.9500   15.5889    0.8101 Cl    125  UNL125     -0.1257
    994 C          26.4075   14.7072    0.8101 C.3   125  UNL125      0.0198
    995 C          25.2430   15.6750    0.8101 C.3   125  UNL125     -0.0517
    996 H          26.3829   14.0701   -0.0785 H     125  UNL125      0.0427
    997 H          26.3829   14.0701    1.6986 H     125  UNL125      0.0427
    998 H          24.2961   15.1257    0.8101 H     125  UNL125      0.0241
    999 H          25.2603   16.3162    1.6975 H     125  UNL125      0.0241
   1000 H          25.2603   16.3162   -0.0773 H     125  UNL125      0.0241
   1001 CL         28.9526   13.5248    4.6669 Cl    126  UNL126     -0.1257
   1002 C          27.4101   12.6431    4.6669 C.3   126  UNL126      0.0198
   1003 C          26.2456   13.6109    4.6669 C.3   126  UNL126     -0.0517
   1004 H          27.3855   12.0060    3.7783 H     126  UNL126      0.0427
   1005 H          27.3855   12.0060    5.5554 H     126  UNL126      0.0427
   1006 H          25.2987   13.0616    4.6669 H     126  UNL126      0.0241
   1007 H          26.2629   14.2521    5.5543 H     126  UNL126      0.0241
   1008 H          26.2629   14.2521    3.7795 H     126  UNL126      0.0241
   1009 CL         28.2344   18.8574    1.0733 Cl    127  UNL127     -0.1257
   1010 C          26.6919   17.9757    1.0733 C.3   127  UNL127      0.0198
   1011 C          25.5274   18.9435    1.0733 C.3   127  UNL127     -0.0517
   1012 H          26.6673   17.3386    0.1847 H     127  UNL127      0.0427
   1013 H          26.6673   17.3386    1.9618 H     127  UNL127      0.0427
   1014 H          24.5805   18.3942    1.0733 H     127  UNL127      0.0241
   1015 H          25.5447   19.5847    1.9607 H     127  UNL127      0.0241
   1016 H          25.5447   19.5847    0.1859 H     127  UNL127      0.0241
   1017 CL         28.8079   17.0246    4.2846 Cl    128  UNL128     -0.1257
   1018 C          27.2654   16.1429    4.2846 C.3   128  UNL128      0.0198
   1019 C          26.1009   17.1107    4.2846 C.3   128  UNL128     -0.0517
   1020 H          27.2408   15.5058    3.3960 H     128  UNL128      0.0427
   1021 H          27.2408   15.5058    5.1731 H     128  UNL128      0.0427
   1022 H          25.1540   16.5614    4.2846 H     128  UNL128      0.0241
   1023 H          26.1182   17.7519    5.1720 H     128  UNL128      0.0241
   1024 H          26.1182   17.7519    3.3972 H     128  UNL128      0.0241
   1025 CL         28.4803   22.0998    1.0933 Cl    129  UNL129     -0.1257
   1026 C          26.9378   21.2181    1.0933 C.3   129  UNL129      0.0198
   1027 C          25.7733   22.1859    1.0933 C.3   129  UNL129     -0.0517
   1028 H          26.9132   20.5810    0.2047 H     129  UNL129      0.0427
   1029 H          26.9132   20.5810    1.9818 H     129  UNL129      0.0427
   1030 H          24.8264   21.6366    1.0933 H     129  UNL129      0.0241
   1031 H          25.7906   22.8271    1.9807 H     129  UNL129      0.0241
   1032 H          25.7906   22.8271    0.2059 H     129  UNL129      0.0241
   1033 CL         28.9888   25.2569    0.9442 Cl    130  UNL130     -0.1257
   1034 C          27.4463   24.3752    0.9442 C.3   130  UNL130      0.0198
   1035 C          26.2817   25.3430    0.9442 C.3   130  UNL130     -0.0517
   1036 H          27.4216   23.7381    0.0556 H     130  UNL130      0.0427
   1037 H          27.4216   23.7381    1.8327 H     130  UNL130      0.0427
   1038 H          25.3349   24.7937    0.9442 H     130  UNL130      0.0241
   1039 H          26.2991   25.9842    1.8316 H     130  UNL130      0.0241
   1040 H          26.2991   25.9842    0.0568 H     130  UNL130      0.0241
   1041 CL         29.2458   23.3876    4.3729 Cl    131  UNL131     -0.1257
   1042 C          27.7033   22.5059    4.3729 C.3   131  UNL131      0.0198
   1043 C          26.5388   23.4737    4.3729 C.3   131  UNL131     -0.0517
   1044 H          27.6787   21.8688    3.4843 H     131  UNL131      0.0427
   1045 H          27.6787   21.8688    5.2614 H     131  UNL131      0.0427
   1046 H          25.5919   22.9244    4.3729 H     131  UNL131      0.0241
   1047 H          26.5561   24.1149    5.2603 H     131  UNL131      0.0241
   1048 H          26.5561   24.1149    3.4855 H     131  UNL131      0.0241
   1049 CL         29.4141   28.3673    0.9580 Cl    132  UNL132     -0.1257
   1050 C          27.8716   27.4856    0.9580 C.3   132  UNL132      0.0198
   1051 C          26.7071   28.4534    0.9580 C.3   132  UNL132     -0.0517
   1052 H          27.8470   26.8485    0.0694 H     132  UNL132      0.0427
   1053 H          27.8470   26.8485    1.8465 H     132  UNL132      0.0427
   1054 H          25.7602   27.9041    0.9580 H     132  UNL132      0.0241
   1055 H          26.7244   29.0946    1.8454 H     132  UNL132      0.0241
   1056 H          26.7244   29.0946    0.0706 H     132  UNL132      0.0241
   1057 CL         29.1172   26.8466    3.8069 Cl    133  UNL133     -0.1257
   1058 C          27.5747   25.9649    3.8069 C.3   133  UNL133      0.0198
   1059 C          26.4102   26.9327    3.8069 C.3   133  UNL133     -0.0517
   1060 H          27.5501   25.3278    2.9183 H     133  UNL133      0.0427
   1061 H          27.5501   25.3278    4.6954 H     133  UNL133      0.0427
   1062 H          25.4633   26.3834    3.8069 H     133  UNL133      0.0241
   1063 H          26.4275   27.5739    4.6943 H     133  UNL133      0.0241
   1064 H          26.4275   27.5739    2.9195 H     133  UNL133      0.0241
   1065 CL         29.6061   31.6724    1.4595 Cl    134  UNL134     -0.1257
   1066 C          28.0636   30.7907    1.4595 C.3   134  UNL134      0.0198
   1067 C          26.8991   31.7585    1.4595 C.3   134  UNL134     -0.0517
   1068 H          28.0390   30.1536    0.5709 H     134  UNL134      0.0427
   1069 H          28.0390   30.1536    2.3480 H     134  UNL134      0.0427
   1070 H          25.9522   31.2092    1.4595 H     134  UNL134      0.0241
   1071 H          26.9164   32.3997    2.3469 H     134  UNL134      0.0241
   1072 H          26.9164   32.3997    0.5721 H     134  UNL134      0.0241
   1073 CL         29.4121   30.0147    4.0729 Cl    135  UNL135     -0.1257
   1074 C          27.8695   29.1330    4.0729 C.3   135  UNL135      0.0198
   1075 C          26.7050   30.1008    4.0729 C.3   135  UNL135     -0.0517
   1076 H          27.8449   28.4959    3.1843 H     135  UNL135      0.0427
   1077 H          27.8449   28.4959    4.9614 H     135  UNL135      0.0427
   1078 H          25.7581   29.5515    4.0729 H     135  UNL135      0.0241
   1079 H          26.7224   30.7420    4.9603 H     135  UNL135      0.0241
   1080 H          26.7224   30.7420    3.1855 H     135  UNL135      0.0241
   1081 CL         28.2094   35.5163    1.0177 Cl    136  UNL136     -0.1257
   1082 C          26.6669   34.6346    1.0177 C.3   136  UNL136      0.0198
   1083 C          25.5024   35.6024    1.0177 C.3   136  UNL136     -0.0517
   1084 H          26.6423   33.9975    0.1291 H     136  UNL136      0.0427
   1085 H          26.6423   33.9975    1.9062 H     136  UNL136      0.0427
   1086 H          24.5555   35.0531    1.0177 H     136  UNL136      0.0241
   1087 H          25.5197   36.2436    1.9051 H     136  UNL136      0.0241
   1088 H          25.5197   36.2436    0.1303 H     136  UNL136      0.0241
   1089 CL         28.5787   38.3409    1.2983 Cl    137  UNL137     -0.1257
   1090 C          27.0362   37.4592    1.2983 C.3   137  UNL137      0.0198
   1091 C          25.8717   38.4270    1.2983 C.3   137  UNL137     -0.0517
   1092 H          27.0116   36.8221    0.4097 H     137  UNL137      0.0427
   1093 H          27.0116   36.8221    2.1868 H     137  UNL137      0.0427
   1094 H          24.9248   37.8777    1.2983 H     137  UNL137      0.0241
   1095 H          25.8890   39.0682    2.1857 H     137  UNL137      0.0241
   1096 H          25.8890   39.0682    0.4109 H     137  UNL137      0.0241
   1097 CL         28.2450   36.9902    4.2872 Cl    138  UNL138     -0.1257
   1098 C          26.7025   36.1085    4.2872 C.3   138  UNL138      0.0198
   1099 C          25.5380   37.0763    4.2872 C.3   138  UNL138     -0.0517
   1100 H          26.6779   35.4714    3.3986 H     138  UNL138      0.0427
   1101 H          26.6779   35.4714    5.1757 H     138  UNL138      0.0427
   1102 H          24.5911   36.5270    4.2872 H     138  UNL138      0.0241
   1103 H          25.5553   37.7175    5.1746 H     138  UNL138      0.0241
   1104 H          25.5553   37.7175    3.3998 H     138  UNL138      0.0241
@<TRIPOS>BOND
     1     1     2    1
     2     2     3    1
     3     2     4    1
     4     2     5    1
     5     3     6    1
     6     3     7    1
     7     3     8    1
     8     9    10    1
     9    10    11    1
    10    10    12    1
    11    10    13    1
    12    11    14    1
    13    11    15    1
    14    11    16    1
    15    17    18    1
    16    18    19    1
    17    18    20    1
    18    18    21    1
    19    19    22    1
    20    19    23    1
    21    19    24    1
    22    25    26    1
    23    26    27    1
    24    26    28    1
    25    26    29    1
    26    27    30    1
    27    27    31    1
    28    27    32    1
    29    33    34    1
    30    34    35    1
    31    34    36    1
    32    34    37    1
    33    35    38    1
    34    35    39    1
    35    35    40    1
    36    41    42    1
    37    42    43    1
    38    42    44    1
    39    42    45    1
    40    43    46    1
    41    43    47    1
    42    43    48    1
    43    49    50    1
    44    50    51    1
    45    50    52    1
    46    50    53    1
    47    51    54    1
    48    51    55    1
    49    51    56    1
    50    57    58    1
    51    58    59    1
    52    58    60    1
    53    58    61    1
    54    59    62    1
    55    59    63    1
    56    59    64    1
    57    65    66    1
    58    66    67    1
    59    66    68    1
    60    66    69    1
    61    67    70    1
    62    67    71    1
    63    67    72    1
    64    73    74    1
    65    74    75    1
    66    74    76    1
    67    74    77    1
    68    75    78    1
    69    75    79    1
    70    75    80    1
    71    81    82    1
    72    82    83    1
    73    82    84    1
    74    82    85    1
    75    83    86    1
    76    83    87    1
    77    83    88    1
    78    89    90    1
    79    90    91    1
    80    90    92    1
    81    90    93    1
    82    91    94    1
    83    91    95    1
    84    91    96    1
    85    97    98    1
    86    98    99    1
    87    98   100    1
    88    98   101    1
    89    99   102    1
    90    99   103    1
    91    99   104    1
    92   105   106    1
    93   106   107    1
    94   106   108    1
    95   106   109    1
    96   107   110    1
    97   107   111    1
    98   107   112    1
    99   113   114    1
   100   114   115    1
   101   114   116    1
   102   114   117    1
   103   115   118    1
   104   115   119    1
   105   115   120    1
   106   121   122    1
   107   122   123    1
   108   122   124    1
   109   122   125    1
   110   123   126    1
   111   123   127    1
   112   123   128    1
   113   129   130    1
   114   130   131    1
   115   130   132    1
   116   130   133    1
   117   131   134    1
   118   131   135    1
   119   131   136    1
   120   137   138    1
   121   138   139    1
   122   138   140    1
   123   138   141    1
   124   139   142    1
   125   139   143    1
   126   139   144    1
   127   145   146    1
   128   146   147    1
   129   146   148    1
   130   146   149    1
   131   147   150    1
   132   147   151    1
   133   147   152    1
   134   153   154    1
   135   154   155    1
   136   154   156    1
   137   154   157    1
   138   155   158    1
   139   155   159    1
   140   155   160    1
   141   161   162    1
   142   162   163    1
   143   162   164    1
   144   162   165    1
   145   163   166    1
   146   163   167    1
   147   163   168    1
   148   169   170    1
   149   170   171    1
   150   170   172    1
   151   170   173    1
   152   171   174    1
   153   171   175    1
   154   171   176    1
   155   177   178    1
   156   178   179    1
   157   178   180    1
   158   178   181    1
   159   179   182    1
   160   179   183    1
   161   179   184    1
   162   185   186    1
   163   186   187    1
   164   186   188    1
   165   186   189    1
   166   187   190    1
   167   187   191    1
   168   187   192    1
   169   193   194    1
   170   194   195    1
   171   194   196    1
   172   194   197    1
   173   195   198    1
   174   195   199    1
   175   195   200    1
   176   201   202    1
   177   202   203    1
   178   202   204    1
   179   202   205    1
   180   203   206    1
   181   203   207    1
   182   203   208    1
   183   209   210    1
   184   210   211    1
   185   210   212    1
   186   210   213    1
   187   211   214    1
   188   211   215    1
   189   211   216    1
   190   217   218    1
   191   218   219    1
   192   218   220    1
   193   218   221    1
   194   219   222    1
   195   219   223    1
   196   219   224    1
   197   225   226    1
   198   226   227    1
   199   226   228    1
   200   226   229    1
   201   227   230    1
   202   227   231    1
   203   227   232    1
   204   233   234    1
   205   234   235    1
   206   234   236    1
   207   234   237    1
   208   235   238    1
   209   235   239    1
   210   235   240    1
   211   241   242    1
   212   242   243    1
   213   242   244    1
   214   242   245    1
   215   243   246    1
   216   243   247    1
   217   243   248    1
   218   249   250    1
   219   250   251    1
   220   250   252    1
   221   250   253    1
   222   251   254    1
   223   251   255    1
   224   251   256    1
   225   257   258    1
   226   258   259    1
   227   258   260    1
   228   258   261    1
   229   259   262    1
   230   259   263    1
   231   259   264    1
   232   265   266    1
   233   266   267    1
   234   266   268    1
   235   266   269    1
   236   267   270    1
   237   267   271    1
   238   267   272    1
   239   273   274    1
   240   274   275    1
   241   274   276    1
   242   274   277    1
   243   275   278    1
   244   275   279    1
   245   275   280    1
   246   281   282    1
   247   282   283    1
   248   282   284    1
   249   282   285    1
   250   283   286    1
   251   283   287    1
   252   283   288    1
   253   289   290    1
   254   290   291    1
   255   290   292    1
   256   290   293    1
   257   291   294    1
   258   291   295    1
   259   291   296    1
   260   297   298    1
   261   298   299    1
   262   298   300    1
   263   298   301    1
   264   299   302    1
   265   299   303    1
   266   299   304    1
   267   305   306    1
   268   306   307    1
   269   306   308    1
   270   306   309    1
   271   307   310    1
   272   307   311    1
   273   307   312    1
   274   313   314    1
   275   314   315    1
   276   314   316    1
   277   314   317    1
   278   315   318    1
   279   315   319    1
   280   315   320    1
   281   321   322    1
   282   322   323    1
   283   322   324    1
   284   322   325    1
   285   323   326    1
   286   323   327    1
   287   323   328    1
   288   329   330    1
   289   330   331    1
   290   330   332    1
   291   330   333    1
   292   331   334    1
   293   331   335    1
   294   331   336    1
   295   337   338    1
   296   338   339    1
   297   338   340    1
   298   338   341    1
   299   339   342    1
   300   339   343    1
   301   339   344    1
   302   345   346    1
   303   346   347    1
   304   346   348    1
   305   346   349    1
   306   347   350    1
   307   347   351    1
   308   347   352    1
   309   353   354    1
   310   354   355    1
   311   354   356    1
   312   354   357    1
   313   355   358    1
   314   355   359    1
   315   355   360    1
   316   361   362    1
   317   362   363    1
   318   362   364    1
   319   362   365    1
   320   363   366    1
   321   363   367    1
   322   363   368    1
   323   369   370    1
   324   370   371    1
   325   370   372    1
   326   370   373    1
   327   371   374    1
   328   371   375    1
   329   371   376    1
   330   377   378    1
   331   378   379    1
   332   378   380    1
   333   378   381    1
   334   379   382    1
   335   379   383    1
   336   379   384    1
   337   385   386    1
   338   386   387    1
   339   386   388    1
   340   386   389    1
   341   387   390    1
   342   387   391    1
   343   387   392    1
   344   393   394    1
   345   394   395    1
   346   394   396    1
   347   394   397    1
   348   395   398    1
   349   395   399    1
   350   395   400    1
   351   401   402    1
   352   402   403    1
   353   402   404    1
   354   402   405    1
   355   403   406    1
   356   403   407    1
   357   403   408    1
   358   409   410    1
   359   410   411    1
   360   410   412    1
   361   410   413    1
   362   411   414    1
   363   411   415    1
   364   411   416    1
   365   417   418    1
   366   418   419    1
   367   418   420    1
   368   418   421    1
   369   419   422    1
   370   419   423    1
   371   419   424    1
   372   425   426    1
   373   426   427    1
   374   426   428    1
   375   426   429    1
   376   427   430    1
   377   427   431    1
   378   427   432    1
   379   433   434    1
   380   434   435    1
   381   434   436    1
   382   434   437    1
   383   435   438    1
   384   435   439    1
   385   435   440    1
   386   441   442    1
   387   442   443    1
   388   442   444    1
   389   442   445    1
   390   443   446    1
   391   443   447    1
   392   443   448    1
   393   449   450    1
   394   450   451    1
   395   450   452    1
   396   450   453    1
   397   451   454    1
   398   451   455    1
   399   451   456    1
   400   457   458    1
   401   458   459    1
   402   458   460    1
   403   458   461    1
   404   459   462    1
   405   459   463    1
   406   459   464    1
   407   465   466    1
   408   466   467    1
   409   466   468    1
   410   466   469    1
   411   467   470    1
   412   467   471    1
   413   467   472    1
   414   473   474    1
   415   474   475    1
   416   474   476    1
   417   474   477    1
   418   475   478    1
   419   475   479    1
   420   475   480    1
   421   481   482    1
   422   482   483    1
   423   482   484    1
   424   482   485    1
   425   483   486    1
   426   483   487    1
   427   483   488    1
   428   489   490    1
   429   490   491    1
   430   490   492    1
   431   490   493    1
   432   491   494    1
   433   491   495    1
   434   491   496    1
   435   497   498    1
   436   498   499    1
   437   498   500    1
   438   498   501    1
   439   499   502    1
   440   499   503    1
   441   499   504    1
   442   505   506    1
   443   506   507    1
   444   506   508    1
   445   506   509    1
   446   507   510    1
   447   507   511    1
   448   507   512    1
   449   513   514    1
   450   514   515    1
   451   514   516    1
   452   514   517    1
   453   515   518    1
   454   515   519    1
   455   515   520    1
   456   521   522    1
   457   522   523    1
   458   522   524    1
   459   522   525    1
   460   523   526    1
   461   523   527    1
   462   523   528    1
   463   529   530    1
   464   530   531    1
   465   530   532    1
   466   530   533    1
   467   531   534    1
   468   531   535    1
   469   531   536    1
   470   537   538    1
   471   538   539    1
   472   538   540    1
   473   538   541    1
   474   539   542    1
   475   539   543    1
   476   539   544    1
   477   545   546    1
   478   546   547    1
   479   546   548    1
   480   546   549    1
   481   547   550    1
   482   547   551    1
   483   547   552    1
   484   553   554    1
   485   554   555    1
   486   554   556    1
   487   554   557    1
   488   555   558    1
   489   555   559    1
   490   555   560    1
   491   561   562    1
   492   562   563    1
   493   562   564    1
   494   562   565    1
   495   563   566    1
   496   563   567    1
   497   563   568    1
   498   569   570    1
   499   570   571    1
   500   570   572    1
   501   570   573    1
   502   571   574    1
   503   571   575    1
   504   571   576    1
   505   577   578    1
   506   578   579    1
   507   578   580    1
   508   578   581    1
   509   579   582    1
   510   579   583    1
   511   579   584    1
   512   585   586    1
   513   586   587    1
   514   586   588    1
   515   586   589    1
   516   587   590    1
   517   587   591    1
   518   587   592    1
   519   593   594    1
   520   594   595    1
   521   594   596    1
   522   594   597    1
   523   595   598    1
   524   595   599    1
   525   595   600    1
   526   601   602    1
   527   602   603    1
   528   602   604    1
   529   602   605    1
   530   603   606    1
   531   603   607    1
   532   603   608    1
   533   609   610    1
   534   610   611    1
   535   610   612    1
   536   610   613    1
   537   611   614    1
   538   611   615    1
   539   611   616    1
   540   617   618    1
   541   618   619    1
   542   618   620    1
   543   618   621    1
   544   619   622    1
   545   619   623    1
   546   619   624    1
   547   625   626    1
   548   626   627    1
   549   626   628    1
   550   626   629    1
   551   627   630    1
   552   627   631    1
   553   627   632    1
   554   633   634    1
   555   634   635    1
   556   634   636    1
   557   634   637    1
   558   635   638    1
   559   635   639    1
   560   635   640    1
   561   641   642    1
   562   642   643    1
   563   642   644    1
   564   642   645    1
   565   643   646    1
   566   643   647    1
   567   643   648    1
   568   649   650    1
   569   650   651    1
   570   650   652    1
   571   650   653    1
   572   651   654    1
   573   651   655    1
   574   651   656    1
   575   657   658    1
   576   658   659    1
   577   658   660    1
   578   658   661    1
   579   659   662    1
   580   659   663    1
   581   659   664    1
   582   665   666    1
   583   666   667    1
   584   666   668    1
   585   666   669    1
   586   667   670    1
   587   667   671    1
   588   667   672    1
   589   673   674    1
   590   674   675    1
   591   674   676    1
   592   674   677    1
   593   675   678    1
   594   675   679    1
   595   675   680    1
   596   681   682    1
   597   682   683    1
   598   682   684    1
   599   682   685    1
   600   683   686    1
   601   683   687    1
   602   683   688    1
   603   689   690    1
   604   690   691    1
   605   690   692    1
   606   690   693    1
   607   691   694    1
   608   691   695    1
   609   691   696    1
   610   697   698    1
   611   698   699    1
   612   698   700    1
   613   698   701    1
   614   699   702    1
   615   699   703    1
   616   699   704    1
   617   705   706    1
   618   706   707    1
   619   706   708    1
   620   706   709    1
   621   707   710    1
   622   707   711    1
   623   707   712    1
   624   713   714    1
   625   714   715    1
   626   714   716    1
   627   714   717    1
   628   715   718    1
   629   715   719    1
   630   715   720    1
   631   721   722    1
   632   722   723    1
   633   722   724    1
   634   722   725    1
   635   723   726    1
   636   723   727    1
   637   723   728    1
   638   729   730    1
   639   730   731    1
   640   730   732    1
   641   730   733    1
   642   731   734    1
   643   731   735    1
   644   731   736    1
   645   737   738    1
   646   738   739    1
   647   738   740    1
   648   738   741    1
   649   739   742    1
   650   739   743    1
   651   739   744    1
   652   745   746    1
   653   746   747    1
   654   746   748    1
   655   746   749    1
   656   747   750    1
   657   747   751    1
   658   747   752    1
   659   753   754    1
   660   754   755    1
   661   754   756    1
   662   754   757    1
   663   755   758    1
   664   755   759    1
   665   755   760    1
   666   761   762    1
   667   762   763    1
   668   762   764    1
   669   762   765    1
   670   763   766    1
   671   763   767    1
   672   763   768    1
   673   769   770    1
   674   770   771    1
   675   770   772    1
   676   770   773    1
   677   771   774    1
   678   771   775    1
   679   771   776    1
   680   777   778    1
   681   778   779    1
   682   778   780    1
   683   778   781    1
   684   779   782    1
   685   779   783    1
   686   779   784    1
   687   785   786    1
   688   786   787    1
   689   786   788    1
   690   786   789    1
   691   787   790    1
   692   787   791    1
   693   787   792    1
   694   793   794    1
   695   794   795    1
   696   794   796    1
   697   794   797    1
   698   795   798    1
   699   795   799    1
   700   795   800    1
   701   801   802    1
   702   802   803    1
   703   802   804    1
   704   802   805    1
   705   803   806    1
   706   803   807    1
   707   803   808    1
   708   809   810    1
   709   810   811    1
   710   810   812    1
   711   810   813    1
   712   811   814    1
   713   811   815    1
   714   811   816    1
   715   817   818    1
   716   818   819    1
   717   818   820    1
   718   818   821    1
   719   819   822    1
   720   819   823    1
   721   819   824    1
   722   825   826    1
   723   826   827    1
   724   826   828    1
   725   826   829    1
   726   827   830    1
   727   827   831    1
   728   827   832    1
   729   833   834    1
   730   834   835    1
   731   834   836    1
   732   834   837    1
   733   835   838    1
   734   835   839    1
   735   835   840    1
   736   841   842    1
   737   842   843    1
   738   842   844    1
   739   842   845    1
   740   843   846    1
   741   843   847    1
   742   843   848    1
   743   849   850    1
   744   850   851    1
   745   850   852    1
   746   850   853    1
   747   851   854    1
   748   851   855    1
   749   851   856    1
   750   857   858    1
   751   858   859    1
   752   858   860    1
   753   858   861    1
   754   859   862    1
   755   859   863    1
   756   859   864    1
   757   865   866    1
   758   866   867    1
   759   866   868    1
   760   866   869    1
   761   867   870    1
   762   867   871    1
   763   867   872    1
   764   873   874    1
   765   874   875    1
   766   874   876    1
   767   874   877    1
   768   875   878    1
   769   875   879    1
   770   875   880    1
   771   881   882    1
   772   882   883    1
   773   882   884    1
   774   882   885    1
   775   883   886    1
   776   883   887    1
   777   883   888    1
   778   889   890    1
   779   890   891    1
   780   890   892    1
   781   890   893    1
   782   891   894    1
   783   891   895    1
   784   891   896    1
   785   897   898    1
   786   898   899    1
   787   898   900    1
   788   898   901    1
   789   899   902    1
   790   899   903    1
   791   899   904    1
   792   905   906    1
   793   906   907    1
   794   906   908    1
   795   906   909    1
   796   907   910    1
   797   907   911    1
   798   907   912    1
   799   913   914    1
   800   914   915    1
   801   914   916    1
   802   914   917    1
   803   915   918    1
   804   915   919    1
   805   915   920    1
   806   921   922    1
   807   922   923    1
   808   922   924    1
   809   922   925    1
   810   923   926    1
   811   923   927    1
   812   923   928    1
   813   929   930    1
   814   930   931    1
   815   930   932    1
   816   930   933    1
   817   931   934    1
   818   931   935    1
   819   931   936    1
   820   937   938    1
   821   938   939    1
   822   938   940    1
   823   938   941    1
   824   939   942    1
   825   939   943    1
   826   939   944    1
   827   945   946    1
   828   946   947    1
   829   946   948    1
   830   946   949    1
   831   947   950    1
   832   947   951    1
   833   947   952    1
   834   953   954    1
   835   954   955    1
   836   954   956    1
   837   954   957    1
   838   955   958    1
   839   955   959    1
   840   955   960    1
   841   961   962    1
   842   962   963    1
   843   962   964    1
   844   962   965    1
   845   963   966    1
   846   963   967    1
   847   963   968    1
   848   969   970    1
   849   970   971    1
   850   970   972    1
   851   970   973    1
   852   971   974    1
   853   971   975    1
   854   971   976    1
   855   977   978    1
   856   978   979    1
   857   978   980    1
   858   978   981    1
   859   979   982    1
   860   979   983    1
   861   979   984    1
   862   985   986    1
   863   986   987    1
   864   986   988    1
   865   986   989    1
   866   987   990    1
   867   987   991    1
   868   987   992    1
   869   993   994    1
   870   994   995    1
   871   994   996    1
   872   994   997    1
   873   995   998    1
   874   995   999    1
   875   995  1000    1
   876  1001  1002    1
   877  1002  1003    1
   878  1002  1004    1
   879  1002  1005    1
   880  1003  1006    1
   881  1003  1007    1
   882  1003  1008    1
   883  1009  1010    1
   884  1010  1011    1
   885  1010  1012    1
   886  1010  1013    1
   887  1011  1014    1
   888  1011  1015    1
   889  1011  1016    1
   890  1017  1018    1
   891  1018  1019    1
   892  1018  1020    1
   893  1018  1021    1
   894  1019  1022    1
   895  1019  1023    1
   896  1019  1024    1
   897  1025  1026    1
   898  1026  1027    1
   899  1026  1028    1
   900  1026  1029    1
   901  1027  1030    1
   902  1027  1031    1
   903  1027  1032    1
   904  1033  1034    1
   905  1034  1035    1
   906  1034  1036    1
   907  1034  1037    1
   908  1035  1038    1
   909  1035  1039    1
   910  1035  1040    1
   911  1041  1042    1
   912  1042  1043    1
   913  1042  1044    1
   914  1042  1045    1
   915  1043  1046    1
   916  1043  1047    1
   917  1043  1048    1
   918  1049  1050    1
   919  1050  1051    1
   920  1050  1052    1
   921  1050  1053    1
   922  1051  1054    1
   923  1051  1055    1
   924  1051  1056    1
   925  1057  1058    1
   926  1058  1059    1
   927  1058  1060    1
   928  1058  1061    1
   929  1059  1062    1
   930  1059  1063    1
   931  1059  1064    1
   932  1065  1066    1
   933  1066  1067    1
   934  1066  1068    1
   935  1066  1069    1
   936  1067  1070    1
   937  1067  1071    1
   938  1067  1072    1
   939  1073  1074    1
   940  1074  1075    1
   941  1074  1076    1
   942  1074  1077    1
   943  1075  1078    1
   944  1075  1079    1
   945  1075  1080    1
   946  1081  1082    1
   947  1082  1083    1
   948  1082  1084    1
   949  1082  1085    1
   950  1083  1086    1
   951  1083  1087    1
   952  1083  1088    1
   953  1089  1090    1
   954  1090  1091    1
   955  1090  1092    1
   956  1090  1093    1
   957  1091  1094    1
   958  1091  1095    1
   959  1091  1096    1
   960  1097  1098    1
   961  1098  1099    1
   962  1098  1100    1
   963  1098  1101    1
   964  1099  1102    1
   965  1099  1103    1
   966  1099  1104    1
