@<TRIPOS>MOLECULE
*****
 3464 3031 0 0 0
SMALL
GASTEIGER

@<TRIPOS>ATOM
      1 CL         -0.2496   -0.9868    1.5290 Cl      1  UNL1       -0.1257
      2 C          -1.7456   -0.0284    1.5290 C.3     1  UNL1        0.0198
      3 C          -1.4276    1.4519    1.5290 C.3     1  UNL1       -0.0517
      4 H          -2.3216   -0.3019    0.6404 H       1  UNL1        0.0427
      5 H          -2.3216   -0.3019    2.4175 H       1  UNL1        0.0427
      6 H          -2.3531    2.0365    1.5290 H       1  UNL1        0.0241
      7 H          -0.8514    1.7337    2.4164 H       1  UNL1        0.0241
      8 H          -0.8514    1.7337    0.6416 H       1  UNL1        0.0241
      9 CL          2.6469    2.7286    4.5119 Cl      2  UNL2       -0.1257
     10 C           1.1044    1.8469    4.5119 C.3     2  UNL2        0.0198
     11 C          -0.0601    2.8147    4.5119 C.3     2  UNL2       -0.0517
     12 H           1.0798    1.2098    3.6233 H       2  UNL2        0.0427
     13 H           1.0798    1.2098    5.4004 H       2  UNL2        0.0427
     14 H          -1.0070    2.2654    4.5119 H       2  UNL2        0.0241
     15 H          -0.0428    3.4559    5.3993 H       2  UNL2        0.0241
     16 H          -0.0428    3.4559    3.6245 H       2  UNL2        0.0241
     17 CL          0.5369    1.0223    7.5310 Cl      3  UNL3       -0.1257
     18 C          -1.0056    0.1406    7.5310 C.3     3  UNL3        0.0198
     19 C          -2.1701    1.1084    7.5310 C.3     3  UNL3       -0.0517
     20 H          -1.0302   -0.4965    6.6424 H       3  UNL3        0.0427
     21 H          -1.0302   -0.4965    8.4195 H       3  UNL3        0.0427
     22 H          -3.1170    0.5591    7.5310 H       3  UNL3        0.0241
     23 H          -2.1528    1.7496    8.4184 H       3  UNL3        0.0241
     24 H          -2.1528    1.7496    6.6436 H       3  UNL3        0.0241
     25 CL          2.6469    2.9486   10.4775 Cl      4  UNL4       -0.1257
     26 C           1.1044    2.0669   10.4775 C.3     4  UNL4        0.0198
     27 C          -0.0601    3.0347   10.4775 C.3     4  UNL4       -0.0517
     28 H           1.0798    1.4298    9.5889 H       4  UNL4        0.0427
     29 H           1.0798    1.4298   11.3660 H       4  UNL4        0.0427
     30 H          -1.0070    2.4854   10.4775 H       4  UNL4        0.0241
     31 H          -0.0428    3.6759   11.3649 H       4  UNL4        0.0241
     32 H          -0.0428    3.6759    9.5901 H       4  UNL4        0.0241
     33 CL          2.6469    2.8386   16.4432 Cl      5  UNL5       -0.1257
     34 C           1.1044    1.9569   16.4432 C.3     5  UNL5        0.0198
     35 C          -0.0601    2.9247   16.4432 C.3     5  UNL5       -0.0517
     36 H           1.0798    1.3198   15.5546 H       5  UNL5        0.0427
     37 H           1.0798    1.3198   17.3317 H       5  UNL5        0.0427
     38 H          -1.0070    2.3754   16.4432 H       5  UNL5        0.0241
     39 H          -0.0428    3.5659   17.3306 H       5  UNL5        0.0241
     40 H          -0.0428    3.5659   15.5558 H       5  UNL5        0.0241
     41 CL          0.9769   -0.7214   19.4018 Cl      6  UNL6       -0.1257
     42 C          -0.5656   -1.6031   19.4018 C.3     6  UNL6        0.0198
     43 C          -1.7301   -0.6353   19.4018 C.3     6  UNL6       -0.0517
     44 H          -0.5902   -2.2402   18.5132 H       6  UNL6        0.0427
     45 H          -0.5902   -2.2402   20.2903 H       6  UNL6        0.0427
     46 H          -2.6770   -1.1846   19.4018 H       6  UNL6        0.0241
     47 H          -1.7128    0.0059   20.2892 H       6  UNL6        0.0241
     48 H          -1.7128    0.0059   18.5144 H       6  UNL6        0.0241
     49 CL          1.6794    0.6312   22.0819 Cl      7  UNL7       -0.1257
     50 C           0.6026    1.8088   22.8632 C.3     7  UNL7        0.0198
     51 C           0.4604    3.0485   22.0056 C.3     7  UNL7       -0.0517
     52 H          -0.3682    1.3289   23.0161 H       7  UNL7        0.0427
     53 H           1.0274    2.0586   23.8395 H       7  UNL7        0.0427
     54 H          -0.2039    3.7697   22.4924 H       7  UNL7        0.0241
     55 H           1.4286    3.5352   21.8486 H       7  UNL7        0.0241
     56 H           0.0349    2.8065   21.0262 H       7  UNL7        0.0241
     57 CL          0.3169   -1.1792   25.0949 Cl      8  UNL8       -0.1257
     58 C          -1.2256   -0.6515   25.8013 C.3     8  UNL8        0.0198
     59 C          -2.3901   -1.2307   25.0259 C.3     8  UNL8       -0.0517
     60 H          -1.2502   -0.9821   26.8435 H       8  UNL8        0.0427
     61 H          -1.2502    0.4416   25.7800 H       8  UNL8        0.0427
     62 H          -3.3370   -0.9020   25.4660 H       8  UNL8        0.0241
     63 H          -2.3728   -0.9035   23.9812 H       8  UNL8        0.0241
     64 H          -2.3728   -2.3254   25.0433 H       8  UNL8        0.0241
     65 CL          2.6227    2.7580   28.0597 Cl      9  UNL9       -0.1257
     66 C           1.0802    2.3495   28.8410 C.3     9  UNL9        0.0198
     67 C          -0.0843    2.7979   27.9834 C.3     9  UNL9       -0.0517
     68 H           1.0556    1.2668   28.9938 H       9  UNL9        0.0427
     69 H           1.0556    2.8416   29.8173 H       9  UNL9        0.0427
     70 H          -1.0312    2.5434   28.4701 H       9  UNL9        0.0241
     71 H          -0.0670    3.8814   27.8264 H       9  UNL9        0.0241
     72 H          -0.0670    2.3087   27.0040 H       9  UNL9        0.0241
     73 CL          0.5369    1.0223   31.3694 Cl     10  UNL10      -0.1257
     74 C          -1.0056    0.1406   31.3694 C.3    10  UNL10       0.0198
     75 C          -2.1701    1.1084   31.3694 C.3    10  UNL10      -0.0517
     76 H          -1.0302   -0.4965   30.4808 H      10  UNL10       0.0427
     77 H          -1.0302   -0.4965   32.2579 H      10  UNL10       0.0427
     78 H          -3.1170    0.5591   31.3694 H      10  UNL10       0.0241
     79 H          -2.1528    1.7496   32.2568 H      10  UNL10       0.0241
     80 H          -2.1528    1.7496   30.4820 H      10  UNL10       0.0241
     81 CL         -2.2388   -0.1206   32.6585 Cl     11  UNL11      -0.1257
     82 C          -2.0220    0.6965   34.2212 C.3    11  UNL11       0.0198
     83 C          -0.5498    0.8604   34.5347 C.3    11  UNL11      -0.0517
     84 H          -2.5177    1.6698   34.1648 H      11  UNL11       0.0427
     85 H          -2.5177    0.0950   34.9882 H      11  UNL11       0.0427
     86 H          -0.4231    1.3643   35.4982 H      11  UNL11       0.0241
     87 H          -0.0464   -0.1102   34.5935 H      11  UNL11       0.0241
     88 H          -0.0464    1.4626   33.7712 H      11  UNL11       0.0241
     89 CL         -0.8791    6.0332    1.5290 Cl     12  UNL12      -0.1257
     90 C          -0.8126    4.2578    1.5290 C.3    12  UNL12       0.0198
     91 C          -2.2098    3.6743    1.5290 C.3    12  UNL12      -0.0517
     92 H          -0.2594    3.9407    0.6404 H      12  UNL12       0.0427
     93 H          -0.2594    3.9407    2.4175 H      12  UNL12       0.0427
     94 H          -2.1618    2.5806    1.5290 H      12  UNL12       0.0241
     95 H          -2.7700    3.9867    2.4164 H      12  UNL12       0.0241
     96 H          -2.7700    3.9867    0.6416 H      12  UNL12       0.0241
     97 CL          2.6106    5.7253    4.8036 Cl     13  UNL13      -0.1257
     98 C           1.0681    6.2284    4.0795 C.3    13  UNL13       0.0198
     99 C          -0.0964    5.6762    4.8743 C.3    13  UNL13      -0.0517
    100 H           1.0435    7.3217    4.0633 H      13  UNL13       0.0427
    101 H           1.0435    5.8622    3.0493 H      13  UNL13       0.0427
    102 H          -1.0433    5.9896    4.4232 H      13  UNL13       0.0241
    103 H          -0.0791    4.5816    4.8945 H      13  UNL13       0.0241
    104 H          -0.0791    6.0391    5.9072 H      13  UNL13       0.0241
    105 CL          0.7569    2.7232    7.5068 Cl     14  UNL14      -0.1257
    106 C          -0.7856    1.8415    7.5068 C.3    14  UNL14       0.0198
    107 C          -1.9501    2.8093    7.5068 C.3    14  UNL14      -0.0517
    108 H          -0.8102    1.2044    6.6182 H      14  UNL14       0.0427
    109 H          -0.8102    1.2044    8.3953 H      14  UNL14       0.0427
    110 H          -2.8970    2.2600    7.5068 H      14  UNL14       0.0241
    111 H          -1.9328    3.4505    8.3942 H      14  UNL14       0.0241
    112 H          -1.9328    3.4505    6.6194 H      14  UNL14       0.0241
    113 CL          2.6106    6.1732   10.4775 Cl     15  UNL15      -0.1257
    114 C           1.0681    5.2915   10.4775 C.3    15  UNL15       0.0198
    115 C          -0.0964    6.2593   10.4775 C.3    15  UNL15      -0.0517
    116 H           1.0435    4.6544    9.5889 H      15  UNL15       0.0427
    117 H           1.0435    4.6544   11.3660 H      15  UNL15       0.0427
    118 H          -1.0433    5.7100   10.4775 H      15  UNL15       0.0241
    119 H          -0.0791    6.9005   11.3649 H      15  UNL15       0.0241
    120 H          -0.0791    6.9005    9.5901 H      15  UNL15       0.0241
    121 CL          1.2672    3.6911   13.4361 Cl     16  UNL16      -0.1257
    122 C           1.3337    1.9157   13.4361 C.3    16  UNL16       0.0198
    123 C          -0.0635    1.3322   13.4361 C.3    16  UNL16      -0.0517
    124 H           1.8869    1.5986   12.5475 H      16  UNL16       0.0427
    125 H           1.8869    1.5986   14.3246 H      16  UNL16       0.0427
    126 H          -0.0155    0.2385   13.4361 H      16  UNL16       0.0241
    127 H          -0.6237    1.6446   14.3235 H      16  UNL16       0.0241
    128 H          -0.6237    1.6446   12.5487 H      16  UNL16       0.0241
    129 CL          2.6227    6.1732   16.4432 Cl     17  UNL17      -0.1257
    130 C           1.0802    5.2915   16.4432 C.3    17  UNL17       0.0198
    131 C          -0.0843    6.2593   16.4432 C.3    17  UNL17      -0.0517
    132 H           1.0556    4.6544   15.5546 H      17  UNL17       0.0427
    133 H           1.0556    4.6544   17.3317 H      17  UNL17       0.0427
    134 H          -1.0312    5.7100   16.4432 H      17  UNL17       0.0241
    135 H          -0.0670    6.9005   17.3306 H      17  UNL17       0.0241
    136 H          -0.0670    6.9005   15.5558 H      17  UNL17       0.0241
    137 CL          0.7569    1.6153   19.6935 Cl     18  UNL18      -0.1257
    138 C          -0.7856    2.1184   18.9694 C.3    18  UNL18       0.0198
    139 C          -1.9501    1.5662   19.7642 C.3    18  UNL18      -0.0517
    140 H          -0.8102    3.2117   18.9532 H      18  UNL18       0.0427
    141 H          -0.8102    1.7522   17.9392 H      18  UNL18       0.0427
    142 H          -2.8970    1.8796   19.3131 H      18  UNL18       0.0241
    143 H          -1.9328    0.4716   19.7845 H      18  UNL18       0.0241
    144 H          -1.9328    1.9291   20.7971 H      18  UNL18       0.0241
    145 CL          2.6469    6.7232   22.3846 Cl     19  UNL19      -0.1257
    146 C           1.1044    5.8415   22.3846 C.3    19  UNL19       0.0198
    147 C          -0.0601    6.8093   22.3846 C.3    19  UNL19      -0.0517
    148 H           1.0798    5.2044   21.4960 H      19  UNL19       0.0427
    149 H           1.0798    5.2044   23.2731 H      19  UNL19       0.0427
    150 H          -1.0070    6.2600   22.3846 H      19  UNL19       0.0241
    151 H          -0.0428    7.4505   23.2720 H      19  UNL19       0.0241
    152 H          -0.0428    7.4505   21.4972 H      19  UNL19       0.0241
    153 CL         -2.0101    5.1081   23.7463 Cl     20  UNL20      -0.1257
    154 C          -1.2329    4.7755   25.3090 C.3    20  UNL20       0.0198
    155 C          -1.2836    3.2950   25.6225 C.3    20  UNL20      -0.0517
    156 H          -0.1982    5.1252   25.2526 H      20  UNL20       0.0427
    157 H          -1.7564    5.3530   26.0761 H      20  UNL20       0.0427
    158 H          -0.8034    3.0968   26.5861 H      20  UNL20       0.0241
    159 H          -2.3168    2.9373   25.6814 H      20  UNL20       0.0241
    160 H          -0.7606    2.7099   24.8590 H      20  UNL20       0.0241
    161 CL          2.6106    5.7253   28.6662 Cl     21  UNL21      -0.1257
    162 C           1.0681    6.2284   27.9421 C.3    21  UNL21       0.0198
    163 C          -0.0964    5.6762   28.7369 C.3    21  UNL21      -0.0517
    164 H           1.0435    7.3217   27.9259 H      21  UNL21       0.0427
    165 H           1.0435    5.8622   26.9119 H      21  UNL21       0.0427
    166 H          -1.0433    5.9896   28.2858 H      21  UNL21       0.0241
    167 H          -0.0791    4.5816   28.7571 H      21  UNL21       0.0241
    168 H          -0.0791    6.0391   29.7698 H      21  UNL21       0.0241
    169 CL          0.8669    2.7232   31.3210 Cl     22  UNL22      -0.1257
    170 C          -0.6756    1.8415   31.3210 C.3    22  UNL22       0.0198
    171 C          -1.8401    2.8093   31.3210 C.3    22  UNL22      -0.0517
    172 H          -0.7002    1.2044   30.4324 H      22  UNL22       0.0427
    173 H          -0.7002    1.2044   32.2095 H      22  UNL22       0.0427
    174 H          -2.7870    2.2600   31.3210 H      22  UNL22       0.0241
    175 H          -1.8228    3.4505   32.2084 H      22  UNL22       0.0241
    176 H          -1.8228    3.4505   30.4336 H      22  UNL22       0.0241
    177 CL          0.9769    4.3932   34.3401 Cl     23  UNL23      -0.1257
    178 C          -0.5656    3.5115   34.3401 C.3    23  UNL23       0.0198
    179 C          -1.7301    4.4793   34.3401 C.3    23  UNL23      -0.0517
    180 H          -0.5902    2.8744   33.4515 H      23  UNL23       0.0427
    181 H          -0.5902    2.8744   35.2286 H      23  UNL23       0.0427
    182 H          -2.6770    3.9300   34.3401 H      23  UNL23       0.0241
    183 H          -1.7128    5.1205   35.2275 H      23  UNL23       0.0241
    184 H          -1.7128    5.1205   33.4527 H      23  UNL23       0.0241
    185 CL         -2.2374    5.7308    2.5443 Cl     24  UNL24      -0.1257
    186 C          -1.3838    6.6891    1.3156 C.3    24  UNL24       0.0198
    187 C          -1.5653    8.1695    1.5768 C.3    24  UNL24      -0.0517
    188 H          -0.3254    6.4157    1.3496 H      24  UNL24       0.0427
    189 H          -1.7848    6.4157    0.3356 H      24  UNL24       0.0427
    190 H          -1.0372    8.7541    0.8167 H      24  UNL24       0.0241
    191 H          -2.6228    8.4513    1.5437 H      24  UNL24       0.0241
    192 H          -1.1653    8.4513    2.5563 H      24  UNL24       0.0241
    193 CL          2.6106    9.2072    4.8024 Cl     25  UNL25      -0.1257
    194 C           1.0681    8.7986    4.0211 C.3    25  UNL25       0.0198
    195 C          -0.0964    9.2471    4.8787 C.3    25  UNL25      -0.0517
    196 H           1.0435    9.2908    3.0448 H      25  UNL25       0.0427
    197 H           1.0435    7.7160    3.8682 H      25  UNL25       0.0427
    198 H          -1.0433    8.9925    4.3920 H      25  UNL25       0.0241
    199 H          -0.0791    8.7578    5.8581 H      25  UNL25       0.0241
    200 H          -0.0791   10.3306    5.0358 H      25  UNL25       0.0241
    201 CL         -0.4902    7.5974    7.1920 Cl     26  UNL26      -0.1257
    202 C          -0.8429    6.0411    7.9733 C.3    26  UNL26       0.0198
    203 C          -1.7799    5.2170    7.1157 C.3    26  UNL26      -0.0517
    204 H           0.1051    5.5177    8.1261 H      26  UNL26       0.0427
    205 H          -1.2904    6.2474    8.9496 H      26  UNL26       0.0427
    206 H          -1.9931    4.2600    7.6025 H      26  UNL26       0.0241
    207 H          -2.7321    5.7344    6.9587 H      26  UNL26       0.0241
    208 H          -1.3383    5.0056    6.1363 H      26  UNL26       0.0241
    209 CL          2.6469    9.7278   10.4775 Cl     27  UNL27      -0.1257
    210 C           1.1044    8.8461   10.4775 C.3    27  UNL27       0.0198
    211 C          -0.0601    9.8139   10.4775 C.3    27  UNL27      -0.0517
    212 H           1.0798    8.2090    9.5889 H      27  UNL27       0.0427
    213 H           1.0798    8.2090   11.3660 H      27  UNL27       0.0427
    214 H          -1.0070    9.2646   10.4775 H      27  UNL27       0.0241
    215 H          -0.0428   10.4551   11.3649 H      27  UNL27       0.0241
    216 H          -0.0428   10.4551    9.5901 H      27  UNL27       0.0241
    217 CL         -0.3851    3.5159   13.4603 Cl     28  UNL28      -0.1257
    218 C          -0.1683    5.2794   13.4603 C.3    28  UNL28       0.0198
    219 C           1.3039    5.6331   13.4603 C.3    28  UNL28      -0.0517
    220 H          -0.6640    5.6803   12.5717 H      28  UNL28       0.0427
    221 H          -0.6640    5.6803   14.3488 H      28  UNL28       0.0427
    222 H           1.4306    6.7205   13.4603 H      28  UNL28       0.0241
    223 H           1.8073    5.2355   14.3477 H      28  UNL28       0.0241
    224 H           1.8073    5.2355   12.5729 H      28  UNL28       0.0241
    225 CL          2.6711    9.4999   16.1272 Cl     29  UNL29      -0.1257
    226 C           1.1286   10.0030   16.8513 C.3    29  UNL29       0.0198
    227 C          -0.0359    9.4508   16.0565 C.3    29  UNL29      -0.0517
    228 H           1.1040    9.6367   17.8815 H      29  UNL29       0.0427
    229 H           1.1040   11.0962   16.8676 H      29  UNL29       0.0427
    230 H          -0.9828    9.7642   16.5076 H      29  UNL29       0.0241
    231 H          -0.0186    9.8137   15.0236 H      29  UNL29       0.0241
    232 H          -0.0186    8.3561   16.0362 H      29  UNL29       0.0241
    233 CL          0.3169    5.4272   19.7529 Cl     30  UNL30      -0.1257
    234 C          -1.2256    5.0186   18.9715 C.3    30  UNL30       0.0198
    235 C          -2.3901    5.4671   19.8292 C.3    30  UNL30      -0.0517
    236 H          -1.2502    5.5108   17.9952 H      30  UNL30       0.0427
    237 H          -1.2502    3.9360   18.8187 H      30  UNL30       0.0427
    238 H          -3.3370    5.2125   19.3424 H      30  UNL30       0.0241
    239 H          -2.3728    4.9778   20.8086 H      30  UNL30       0.0241
    240 H          -2.3728    6.5506   19.9862 H      30  UNL30       0.0241
    241 CL          2.6711    9.4272   22.7115 Cl     31  UNL31      -0.1257
    242 C           1.1286    9.0186   21.9302 C.3    31  UNL31       0.0198
    243 C          -0.0359    9.4671   22.7878 C.3    31  UNL31      -0.0517
    244 H           1.1040    9.5108   20.9538 H      31  UNL31       0.0427
    245 H           1.1040    7.9360   21.7773 H      31  UNL31       0.0427
    246 H          -0.9828    9.2125   22.3010 H      31  UNL31       0.0241
    247 H          -0.0186    8.9778   23.7672 H      31  UNL31       0.0241
    248 H          -0.0186   10.5506   22.9448 H      31  UNL31       0.0241
    249 CL          2.6469    9.6472   25.0647 Cl     32  UNL32      -0.1257
    250 C           1.1044    9.2386   25.8461 C.3    32  UNL32       0.0198
    251 C          -0.0601    9.6871   24.9884 C.3    32  UNL32      -0.0517
    252 H           1.0798    8.1560   25.9989 H      32  UNL32       0.0427
    253 H           1.0798    9.7308   26.8224 H      32  UNL32       0.0427
    254 H          -1.0070    9.4325   25.4752 H      32  UNL32       0.0241
    255 H          -0.0428   10.7706   24.8314 H      32  UNL32       0.0241
    256 H          -0.0428    9.1978   24.0090 H      32  UNL32       0.0241
    257 CL          2.6227    9.7278   28.3745 Cl     33  UNL33      -0.1257
    258 C           1.0802    8.8461   28.3745 C.3    33  UNL33       0.0198
    259 C          -0.0843    9.8139   28.3745 C.3    33  UNL33      -0.0517
    260 H           1.0556    8.2090   27.4859 H      33  UNL33       0.0427
    261 H           1.0556    8.2090   29.2630 H      33  UNL33       0.0427
    262 H          -1.0312    9.2646   28.3745 H      33  UNL33       0.0241
    263 H          -0.0670   10.4551   29.2619 H      33  UNL33       0.0241
    264 H          -0.0670   10.4551   27.4871 H      33  UNL33       0.0241
    265 CL          0.8669    5.8378   31.3815 Cl     34  UNL34      -0.1257
    266 C          -0.6756    4.9561   31.3815 C.3    34  UNL34       0.0198
    267 C          -1.8401    5.9239   31.3815 C.3    34  UNL34      -0.0517
    268 H          -0.7002    4.3190   30.4929 H      34  UNL34       0.0427
    269 H          -0.7002    4.3190   32.2700 H      34  UNL34       0.0427
    270 H          -2.7870    5.3746   31.3815 H      34  UNL34       0.0241
    271 H          -1.8228    6.5651   32.2689 H      34  UNL34       0.0241
    272 H          -1.8228    6.5651   30.4941 H      34  UNL34       0.0241
    273 CL          0.9769    7.7157   34.3401 Cl     35  UNL35      -0.1257
    274 C          -0.5656    6.8340   34.3401 C.3    35  UNL35       0.0198
    275 C          -1.7301    7.8018   34.3401 C.3    35  UNL35      -0.0517
    276 H          -0.5902    6.1969   33.4515 H      35  UNL35       0.0427
    277 H          -0.5902    6.1969   35.2286 H      35  UNL35       0.0427
    278 H          -2.6770    7.2525   34.3401 H      35  UNL35       0.0241
    279 H          -1.7128    8.4430   35.2275 H      35  UNL35       0.0241
    280 H          -1.7128    8.4430   33.4527 H      35  UNL35       0.0241
    281 CL         -0.5644   11.0745    3.3233 Cl     36  UNL36      -0.1257
    282 C          -1.2791   10.1928    1.9564 C.3    36  UNL36       0.0198
    283 C          -1.8187   11.1606    0.9245 C.3    36  UNL36      -0.0517
    284 H          -0.5031    9.5557    1.5229 H      36  UNL36       0.0427
    285 H          -2.0779    9.5557    2.3463 H      36  UNL36       0.0427
    286 H          -2.2575   10.6113    0.0854 H      36  UNL36       0.0241
    287 H          -2.5971   11.8018    1.3510 H      36  UNL36       0.0241
    288 H          -1.0243   11.8018    0.5286 H      36  UNL36       0.0241
    289 CL          2.6469   12.7617    4.8266 Cl     37  UNL37      -0.1257
    290 C           1.1044   12.3532    4.0453 C.3    37  UNL37       0.0198
    291 C          -0.0601   12.8016    4.9029 C.3    37  UNL37      -0.0517
    292 H           1.0798   12.8454    3.0690 H      37  UNL37       0.0427
    293 H           1.0798   11.2706    3.8924 H      37  UNL37       0.0427
    294 H          -1.0070   12.5471    4.4162 H      37  UNL37       0.0241
    295 H          -0.0428   12.3124    5.8823 H      37  UNL37       0.0241
    296 H          -0.0428   13.8851    5.0600 H      37  UNL37       0.0241
    297 CL          0.9769    8.6517    7.8216 Cl     38  UNL38      -0.1257
    298 C          -0.5656    8.2432    7.0402 C.3    38  UNL38       0.0198
    299 C          -1.7301    8.6916    7.8979 C.3    38  UNL38      -0.0517
    300 H          -0.5902    8.7354    6.0639 H      38  UNL38       0.0427
    301 H          -0.5902    7.1606    6.8874 H      38  UNL38       0.0427
    302 H          -2.6770    8.4371    7.4111 H      38  UNL38       0.0241
    303 H          -1.7128    8.2024    8.8773 H      38  UNL38       0.0241
    304 H          -1.7128    9.7751    8.0549 H      38  UNL38       0.0241
    305 CL          2.6227   12.8424   10.4775 Cl     39  UNL39      -0.1257
    306 C           1.0802   11.9607   10.4775 C.3    39  UNL39       0.0198
    307 C          -0.0843   12.9285   10.4775 C.3    39  UNL39      -0.0517
    308 H           1.0556   11.3236    9.5889 H      39  UNL39       0.0427
    309 H           1.0556   11.3236   11.3660 H      39  UNL39       0.0427
    310 H          -1.0312   12.3792   10.4775 H      39  UNL39       0.0241
    311 H          -0.0670   13.5697   11.3649 H      39  UNL39       0.0241
    312 H          -0.0670   13.5697    9.5901 H      39  UNL39       0.0241
    313 CL          1.2672   10.3603   13.4603 Cl     40  UNL40      -0.1257
    314 C           1.3337    8.5848   13.4603 C.3    40  UNL40       0.0198
    315 C          -0.0635    8.0013   13.4603 C.3    40  UNL40      -0.0517
    316 H           1.8869    8.2678   12.5717 H      40  UNL40       0.0427
    317 H           1.8869    8.2678   14.3488 H      40  UNL40       0.0427
    318 H          -0.0155    6.9077   13.4603 H      40  UNL40       0.0241
    319 H          -0.6237    8.3138   14.3477 H      40  UNL40       0.0241
    320 H          -0.6237    8.3138   12.5729 H      40  UNL40       0.0241
    321 CL          2.6469   13.0624   16.4432 Cl     41  UNL41      -0.1257
    322 C           1.1044   12.1807   16.4432 C.3    41  UNL41       0.0198
    323 C          -0.0601   13.1485   16.4432 C.3    41  UNL41      -0.0517
    324 H           1.0798   11.5436   15.5546 H      41  UNL41       0.0427
    325 H           1.0798   11.5436   17.3317 H      41  UNL41       0.0427
    326 H          -1.0070   12.5992   16.4432 H      41  UNL41       0.0241
    327 H          -0.0428   13.7897   17.3306 H      41  UNL41       0.0241
    328 H          -0.0428   13.7897   15.5558 H      41  UNL41       0.0241
    329 CL         -0.5643    8.7324   17.6317 Cl     42  UNL42      -0.1257
    330 C          -1.2791    7.8507   18.9986 C.3    42  UNL42       0.0198
    331 C          -1.8187    8.8185   20.0305 C.3    42  UNL42      -0.0517
    332 H          -2.0779    7.2136   18.6086 H      42  UNL42       0.0427
    333 H          -0.5031    7.2136   19.4321 H      42  UNL42       0.0427
    334 H          -2.2574    8.2692   20.8696 H      42  UNL42       0.0241
    335 H          -1.0243    9.4597   20.4264 H      42  UNL42       0.0241
    336 H          -2.5970    9.4597   19.6040 H      42  UNL42       0.0241
    337 CL          2.6469   12.9818   22.0819 Cl     43  UNL43      -0.1257
    338 C           1.1044   12.5732   22.8632 C.3    43  UNL43       0.0198
    339 C          -0.0601   13.0217   22.0056 C.3    43  UNL43      -0.0517
    340 H           1.0798   11.4905   23.0161 H      43  UNL43       0.0427
    341 H           1.0798   13.0653   23.8395 H      43  UNL43       0.0427
    342 H          -1.0070   12.7671   22.4924 H      43  UNL43       0.0241
    343 H          -0.0428   14.1051   21.8486 H      43  UNL43       0.0241
    344 H          -0.0428   12.5324   21.0262 H      43  UNL43       0.0241
    345 CL          2.6227   13.1724   25.4037 Cl     44  UNL44      -0.1257
    346 C           1.0802   12.2907   25.4037 C.3    44  UNL44       0.0198
    347 C          -0.0843   13.2585   25.4037 C.3    44  UNL44      -0.0517
    348 H           1.0556   11.6536   24.5151 H      44  UNL44       0.0427
    349 H           1.0556   11.6536   26.2922 H      44  UNL44       0.0427
    350 H          -1.0312   12.7092   25.4037 H      44  UNL44       0.0241
    351 H          -0.0670   13.8997   26.2911 H      44  UNL44       0.0241
    352 H          -0.0670   13.8997   24.5163 H      44  UNL44       0.0241
    353 CL          2.6469   12.7618   28.0718 Cl     45  UNL45      -0.1257
    354 C           1.1044   12.3532   28.8531 C.3    45  UNL45       0.0198
    355 C          -0.0601   12.8017   27.9955 C.3    45  UNL45      -0.0517
    356 H           1.0798   11.2705   29.0059 H      45  UNL45       0.0427
    357 H           1.0798   12.8453   29.8294 H      45  UNL45       0.0427
    358 H          -1.0070   12.5471   28.4822 H      45  UNL45       0.0241
    359 H          -0.0428   13.8851   27.8385 H      45  UNL45       0.0241
    360 H          -0.0428   12.3124   27.0161 H      45  UNL45       0.0241
    361 CL          0.8669    9.0624   31.3573 Cl     46  UNL46      -0.1257
    362 C          -0.6756    8.1807   31.3573 C.3    46  UNL46       0.0198
    363 C          -1.8401    9.1485   31.3573 C.3    46  UNL46      -0.0517
    364 H          -0.7002    7.5436   30.4687 H      46  UNL46       0.0427
    365 H          -0.7002    7.5436   32.2458 H      46  UNL46       0.0427
    366 H          -2.7870    8.5992   31.3573 H      46  UNL46       0.0241
    367 H          -1.8228    9.7897   32.2447 H      46  UNL46       0.0241
    368 H          -1.8228    9.7897   30.4699 H      46  UNL46       0.0241
    369 CL          0.9769   11.0624   34.3401 Cl     47  UNL47      -0.1257
    370 C          -0.5656   10.1807   34.3401 C.3    47  UNL47       0.0198
    371 C          -1.7301   11.1485   34.3401 C.3    47  UNL47      -0.0517
    372 H          -0.5902    9.5436   33.4515 H      47  UNL47       0.0427
    373 H          -0.5902    9.5436   35.2286 H      47  UNL47       0.0427
    374 H          -2.6770   10.5992   34.3401 H      47  UNL47       0.0241
    375 H          -1.7128   11.7897   35.2275 H      47  UNL47       0.0241
    376 H          -1.7128   11.7897   33.4527 H      47  UNL47       0.0241
    377 CL          0.7569   14.1942    1.2142 Cl     48  UNL48      -0.1257
    378 C          -0.7856   13.7857    1.9956 C.3    48  UNL48       0.0198
    379 C          -1.9501   14.2341    1.1379 C.3    48  UNL48      -0.0517
    380 H          -0.8102   12.7030    2.1484 H      48  UNL48       0.0427
    381 H          -0.8102   14.2778    2.9719 H      48  UNL48       0.0427
    382 H          -2.8970   13.9796    1.6247 H      48  UNL48       0.0241
    383 H          -1.9328   15.3176    0.9809 H      48  UNL48       0.0241
    384 H          -1.9328   13.7449    0.1585 H      48  UNL48       0.0241
    385 CL          2.6106   16.0669    4.5119 Cl     49  UNL49      -0.1257
    386 C           1.0681   15.1852    4.5119 C.3    49  UNL49       0.0198
    387 C          -0.0964   16.1530    4.5119 C.3    49  UNL49      -0.0517
    388 H           1.0435   14.5481    3.6233 H      49  UNL49       0.0427
    389 H           1.0435   14.5481    5.4004 H      49  UNL49       0.0427
    390 H          -1.0433   15.6037    4.5119 H      49  UNL49       0.0241
    391 H          -0.0791   16.7942    5.3993 H      49  UNL49       0.0241
    392 H          -0.0791   16.7942    3.6245 H      49  UNL49       0.0241
    393 CL          0.9769   12.0669    7.4947 Cl     50  UNL50      -0.1257
    394 C          -0.5656   11.1852    7.4947 C.3    50  UNL50       0.0198
    395 C          -1.7301   12.1530    7.4947 C.3    50  UNL50      -0.0517
    396 H          -0.5902   10.5481    6.6061 H      50  UNL50       0.0427
    397 H          -0.5902   10.5481    8.3832 H      50  UNL50       0.0427
    398 H          -2.6770   11.6037    7.4947 H      50  UNL50       0.0241
    399 H          -1.7128   12.7942    8.3821 H      50  UNL50       0.0241
    400 H          -1.7128   12.7942    6.6073 H      50  UNL50       0.0241
    401 CL          2.6106   16.0669   10.4775 Cl     51  UNL51      -0.1257
    402 C           1.0681   15.1852   10.4775 C.3    51  UNL51       0.0198
    403 C          -0.0964   16.1530   10.4775 C.3    51  UNL51      -0.0517
    404 H           1.0435   14.5481    9.5889 H      51  UNL51       0.0427
    405 H           1.0435   14.5481   11.3660 H      51  UNL51       0.0427
    406 H          -1.0433   15.6037   10.4775 H      51  UNL51       0.0241
    407 H          -0.0791   16.7942   11.3649 H      51  UNL51       0.0241
    408 H          -0.0791   16.7942    9.5901 H      51  UNL51       0.0241
    409 CL         -0.3851   10.5151   13.4603 Cl     52  UNL52      -0.1257
    410 C          -0.1683   12.2785   13.4603 C.3    52  UNL52       0.0198
    411 C           1.3039   12.6323   13.4603 C.3    52  UNL52      -0.0517
    412 H          -0.6640   12.6795   12.5717 H      52  UNL52       0.0427
    413 H          -0.6640   12.6795   14.3488 H      52  UNL52       0.0427
    414 H           1.4306   13.7196   13.4603 H      52  UNL52       0.0241
    415 H           1.8073   12.2347   14.3477 H      52  UNL52       0.0241
    416 H           1.8073   12.2347   12.5729 H      52  UNL52       0.0241
    417 CL          2.6106   16.0669   16.4190 Cl     53  UNL53      -0.1257
    418 C           1.0681   15.1852   16.4190 C.3    53  UNL53       0.0198
    419 C          -0.0964   16.1530   16.4190 C.3    53  UNL53      -0.0517
    420 H           1.0435   14.5481   15.5304 H      53  UNL53       0.0427
    421 H           1.0435   14.5481   17.3075 H      53  UNL53       0.0427
    422 H          -1.0433   15.6037   16.4190 H      53  UNL53       0.0241
    423 H          -0.0791   16.7942   17.3064 H      53  UNL53       0.0241
    424 H          -0.0791   16.7942   15.5316 H      53  UNL53       0.0241
    425 CL          0.5369   12.7269   19.4260 Cl     54  UNL54      -0.1257
    426 C          -1.0056   11.8452   19.4260 C.3    54  UNL54       0.0198
    427 C          -2.1701   12.8130   19.4260 C.3    54  UNL54      -0.0517
    428 H          -1.0302   11.2081   18.5374 H      54  UNL54       0.0427
    429 H          -1.0302   11.2081   20.3145 H      54  UNL54       0.0427
    430 H          -3.1170   12.2637   19.4260 H      54  UNL54       0.0241
    431 H          -2.1528   13.4542   20.3134 H      54  UNL54       0.0241
    432 H          -2.1528   13.4542   18.5386 H      54  UNL54       0.0241
    433 CL          2.6106   15.6191   22.0808 Cl     55  UNL55      -0.1257
    434 C           1.0681   16.1221   22.8049 C.3    55  UNL55       0.0198
    435 C          -0.0964   15.5699   22.0101 C.3    55  UNL55      -0.0517
    436 H           1.0435   15.7559   23.8351 H      55  UNL55       0.0427
    437 H           1.0435   17.2153   22.8211 H      55  UNL55       0.0427
    438 H          -1.0433   15.8833   22.4612 H      55  UNL55       0.0241
    439 H          -0.0791   15.9328   20.9771 H      55  UNL55       0.0241
    440 H          -0.0791   14.4753   21.9898 H      55  UNL55       0.0241
    441 CL          2.6106   16.2869   25.3916 Cl     56  UNL56      -0.1257
    442 C           1.0681   15.4052   25.3916 C.3    56  UNL56       0.0198
    443 C          -0.0964   16.3730   25.3916 C.3    56  UNL56      -0.0517
    444 H           1.0435   14.7681   24.5030 H      56  UNL56       0.0427
    445 H           1.0435   14.7681   26.2801 H      56  UNL56       0.0427
    446 H          -1.0433   15.8237   25.3916 H      56  UNL56       0.0241
    447 H          -0.0791   17.0142   26.2790 H      56  UNL56       0.0241
    448 H          -0.0791   17.0142   24.5042 H      56  UNL56       0.0241
    449 CL          2.6106   15.8763   28.7013 Cl     57  UNL57      -0.1257
    450 C           1.0681   15.4678   27.9200 C.3    57  UNL57       0.0198
    451 C          -0.0964   15.9162   28.7776 C.3    57  UNL57      -0.0517
    452 H           1.0435   15.9600   26.9437 H      57  UNL57       0.0427
    453 H           1.0435   14.3852   27.7671 H      57  UNL57       0.0427
    454 H          -1.0433   15.6617   28.2909 H      57  UNL57       0.0241
    455 H          -0.0791   15.4269   29.7570 H      57  UNL57       0.0241
    456 H          -0.0791   16.9997   28.9347 H      57  UNL57       0.0241
    457 CL          0.6469   12.3969   31.3573 Cl     58  UNL58      -0.1257
    458 C          -0.8956   11.5152   31.3573 C.3    58  UNL58       0.0198
    459 C          -2.0601   12.4830   31.3573 C.3    58  UNL58      -0.0517
    460 H          -0.9202   10.8781   30.4687 H      58  UNL58       0.0427
    461 H          -0.9202   10.8781   32.2458 H      58  UNL58       0.0427
    462 H          -3.0070   11.9337   31.3573 H      58  UNL58       0.0241
    463 H          -2.0428   13.1242   32.2447 H      58  UNL58       0.0241
    464 H          -2.0428   13.1242   30.4699 H      58  UNL58       0.0241
    465 CL          0.8669   14.3969   34.3401 Cl     59  UNL59      -0.1257
    466 C          -0.6756   13.5152   34.3401 C.3    59  UNL59       0.0198
    467 C          -1.8401   14.4830   34.3401 C.3    59  UNL59      -0.0517
    468 H          -0.7002   12.8781   33.4515 H      59  UNL59       0.0427
    469 H          -0.7002   12.8781   35.2286 H      59  UNL59       0.0427
    470 H          -2.7870   13.9337   34.3401 H      59  UNL59       0.0241
    471 H          -1.8228   15.1242   35.2275 H      59  UNL59       0.0241
    472 H          -1.8228   15.1242   33.4527 H      59  UNL59       0.0241
    473 CL          0.9769   17.5409    1.8075 Cl     60  UNL60      -0.1257
    474 C          -0.5656   17.1323    1.0262 C.3    60  UNL60       0.0198
    475 C          -1.7301   17.5808    1.8838 C.3    60  UNL60      -0.0517
    476 H          -0.5902   17.6246    0.0499 H      60  UNL60       0.0427
    477 H          -0.5902   16.0498    0.8733 H      60  UNL60       0.0427
    478 H          -2.6770   17.3263    1.3970 H      60  UNL60       0.0241
    479 H          -1.7128   17.0915    2.8632 H      60  UNL60       0.0241
    480 H          -1.7128   18.6643    2.0408 H      60  UNL60       0.0241
    481 CL          2.6106   18.7315    4.5119 Cl     61  UNL61      -0.1257
    482 C           1.0681   17.8498    4.5119 C.3    61  UNL61       0.0198
    483 C          -0.0964   18.8176    4.5119 C.3    61  UNL61      -0.0517
    484 H           1.0435   17.2127    3.6233 H      61  UNL61       0.0427
    485 H           1.0435   17.2127    5.4004 H      61  UNL61       0.0427
    486 H          -1.0433   18.2683    4.5119 H      61  UNL61       0.0241
    487 H          -0.0791   19.4588    5.3993 H      61  UNL61       0.0241
    488 H          -0.0791   19.4588    3.6245 H      61  UNL61       0.0241
    489 CL          0.9769   15.6509    7.1920 Cl     62  UNL62      -0.1257
    490 C          -0.5656   15.2424    7.9733 C.3    62  UNL62       0.0198
    491 C          -1.7301   15.6908    7.1157 C.3    62  UNL62      -0.0517
    492 H          -0.5902   14.1597    8.1261 H      62  UNL62       0.0427
    493 H          -0.5902   15.7345    8.9496 H      62  UNL62       0.0427
    494 H          -2.6770   15.4363    7.6025 H      62  UNL62       0.0241
    495 H          -1.7128   16.7743    6.9587 H      62  UNL62       0.0241
    496 H          -1.7128   15.2015    6.1363 H      62  UNL62       0.0241
    497 CL          2.6832   18.7315   10.4775 Cl     63  UNL63      -0.1257
    498 C           1.1407   17.8498   10.4775 C.3    63  UNL63       0.0198
    499 C          -0.0238   18.8176   10.4775 C.3    63  UNL63      -0.0517
    500 H           1.1161   17.2127    9.5889 H      63  UNL63       0.0427
    501 H           1.1161   17.2127   11.3660 H      63  UNL63       0.0427
    502 H          -0.9707   18.2683   10.4775 H      63  UNL63       0.0241
    503 H          -0.0065   19.4588   11.3649 H      63  UNL63       0.0241
    504 H          -0.0065   19.4588    9.5901 H      63  UNL63       0.0241
    505 CL         -0.0296   15.7224   13.4603 Cl     64  UNL64      -0.1257
    506 C          -1.5256   16.6807   13.4603 C.3    64  UNL64       0.0198
    507 C          -1.2076   18.1611   13.4603 C.3    64  UNL64      -0.0517
    508 H          -2.1016   16.4073   12.5717 H      64  UNL64       0.0427
    509 H          -2.1016   16.4073   14.3488 H      64  UNL64       0.0427
    510 H          -2.1331   18.7457   13.4603 H      64  UNL64       0.0241
    511 H          -0.6314   18.4429   14.3477 H      64  UNL64       0.0241
    512 H          -0.6314   18.4429   12.5729 H      64  UNL64       0.0241
    513 CL          2.6590   18.7315   16.4432 Cl     65  UNL65      -0.1257
    514 C           1.1165   17.8498   16.4432 C.3    65  UNL65       0.0198
    515 C          -0.0480   18.8176   16.4432 C.3    65  UNL65      -0.0517
    516 H           1.0919   17.2127   15.5546 H      65  UNL65       0.0427
    517 H           1.0919   17.2127   17.3317 H      65  UNL65       0.0427
    518 H          -0.9949   18.2683   16.4432 H      65  UNL65       0.0241
    519 H          -0.0307   19.4588   17.3306 H      65  UNL65       0.0241
    520 H          -0.0307   19.4588   15.5558 H      65  UNL65       0.0241
    521 CL          0.8669   15.9515   19.4018 Cl     66  UNL66      -0.1257
    522 C          -0.6756   15.0698   19.4018 C.3    66  UNL66       0.0198
    523 C          -1.8401   16.0376   19.4018 C.3    66  UNL66      -0.0517
    524 H          -0.7002   14.4327   18.5132 H      66  UNL66       0.0427
    525 H          -0.7002   14.4327   20.2903 H      66  UNL66       0.0427
    526 H          -2.7870   15.4883   19.4018 H      66  UNL66       0.0241
    527 H          -1.8228   16.6788   20.2892 H      66  UNL66       0.0241
    528 H          -1.8228   16.6788   18.5144 H      66  UNL66       0.0241
    529 CL          2.6590   18.7315   22.3725 Cl     67  UNL67      -0.1257
    530 C           1.1165   17.8498   22.3725 C.3    67  UNL67       0.0198
    531 C          -0.0480   18.8176   22.3725 C.3    67  UNL67      -0.0517
    532 H           1.0919   17.2127   21.4839 H      67  UNL67       0.0427
    533 H           1.0919   17.2127   23.2610 H      67  UNL67       0.0427
    534 H          -0.9949   18.2683   22.3725 H      67  UNL67       0.0241
    535 H          -0.0307   19.4588   23.2599 H      67  UNL67       0.0241
    536 H          -0.0307   19.4588   21.4851 H      67  UNL67       0.0241
    537 CL          2.6106   18.7315   25.3916 Cl     68  UNL68      -0.1257
    538 C           1.0681   17.8498   25.3916 C.3    68  UNL68       0.0198
    539 C          -0.0964   18.8176   25.3916 C.3    68  UNL68      -0.0517
    540 H           1.0435   17.2127   24.5030 H      68  UNL68       0.0427
    541 H           1.0435   17.2127   26.2801 H      68  UNL68       0.0427
    542 H          -1.0433   18.2683   25.3916 H      68  UNL68       0.0241
    543 H          -0.0791   19.4588   26.2790 H      68  UNL68       0.0241
    544 H          -0.0791   19.4588   24.5042 H      68  UNL68       0.0241
    545 CL          2.6106   18.7315   28.4108 Cl     69  UNL69      -0.1257
    546 C           1.0681   17.8498   28.4108 C.3    69  UNL69       0.0198
    547 C          -0.0964   18.8176   28.4108 C.3    69  UNL69      -0.0517
    548 H           1.0435   17.2127   27.5222 H      69  UNL69       0.0427
    549 H           1.0435   17.2127   29.2993 H      69  UNL69       0.0427
    550 H          -1.0433   18.2683   28.4108 H      69  UNL69       0.0241
    551 H          -0.0791   19.4588   29.2982 H      69  UNL69       0.0241
    552 H          -0.0791   19.4588   27.5234 H      69  UNL69       0.0241
    553 CL          0.9769   15.7315   31.3573 Cl     70  UNL70      -0.1257
    554 C          -0.5656   14.8498   31.3573 C.3    70  UNL70       0.0198
    555 C          -1.7301   15.8176   31.3573 C.3    70  UNL70      -0.0517
    556 H          -0.5902   14.2127   30.4687 H      70  UNL70       0.0427
    557 H          -0.5902   14.2127   32.2458 H      70  UNL70       0.0427
    558 H          -2.6770   15.2683   31.3573 H      70  UNL70       0.0241
    559 H          -1.7128   16.4588   32.2447 H      70  UNL70       0.0241
    560 H          -1.7128   16.4588   30.4699 H      70  UNL70       0.0241
    561 CL          0.3169   18.7315   35.3401 Cl     71  UNL71      -0.1257
    562 C          -1.2256   17.8498   35.3401 C.3    71  UNL71       0.0198
    563 C          -2.3901   18.8176   35.3401 C.3    71  UNL71      -0.0517
    564 H          -1.2502   17.2127   34.4515 H      71  UNL71       0.0427
    565 H          -1.2502   17.2127   36.2286 H      71  UNL71       0.0427
    566 H          -3.3370   18.2683   35.3401 H      71  UNL71       0.0241
    567 H          -2.3728   19.4588   36.2275 H      71  UNL71       0.0241
    568 H          -2.3728   19.4588   34.4527 H      71  UNL71       0.0241
    569 CL          7.5127   -0.3859    1.5169 Cl     72  UNL72      -0.1257
    570 C           5.9702   -1.2676    1.5169 C.3    72  UNL72       0.0198
    571 C           4.8057   -0.2998    1.5169 C.3    72  UNL72      -0.0517
    572 H           5.9456   -1.9047    0.6283 H      72  UNL72       0.0427
    573 H           5.9456   -1.9047    2.4054 H      72  UNL72       0.0427
    574 H           3.8588   -0.8491    1.5169 H      72  UNL72       0.0241
    575 H           4.8230    0.3414    2.4043 H      72  UNL72       0.0241
    576 H           4.8230    0.3414    0.6295 H      72  UNL72       0.0241
    577 CL          7.4885    0.0541   13.4361 Cl     73  UNL73      -0.1257
    578 C           5.9460   -0.8276   13.4361 C.3    73  UNL73       0.0198
    579 C           4.7815    0.1402   13.4361 C.3    73  UNL73      -0.0517
    580 H           5.9214   -1.4647   12.5475 H      73  UNL73       0.0427
    581 H           5.9214   -1.4647   14.3246 H      73  UNL73       0.0427
    582 H           3.8346   -0.4091   13.4361 H      73  UNL73       0.0241
    583 H           4.7988    0.7814   14.3235 H      73  UNL73       0.0241
    584 H           4.7988    0.7814   12.5487 H      73  UNL73       0.0241
    585 CL          7.4885    0.0541   25.3674 Cl     74  UNL74      -0.1257
    586 C           5.9460   -0.8276   25.3674 C.3    74  UNL74       0.0198
    587 C           4.7815    0.1402   25.3674 C.3    74  UNL74      -0.0517
    588 H           5.9214   -1.4647   24.4788 H      74  UNL74       0.0427
    589 H           5.9214   -1.4647   26.2559 H      74  UNL74       0.0427
    590 H           3.8346   -0.4091   25.3674 H      74  UNL74       0.0241
    591 H           4.7988    0.7814   26.2548 H      74  UNL74       0.0241
    592 H           4.7988    0.7814   24.4800 H      74  UNL74       0.0241
    593 CL          7.5006    3.2786    1.5290 Cl     75  UNL75      -0.1257
    594 C           5.9581    2.3969    1.5290 C.3    75  UNL75       0.0198
    595 C           4.7936    3.3647    1.5290 C.3    75  UNL75      -0.0517
    596 H           5.9335    1.7598    0.6404 H      75  UNL75       0.0427
    597 H           5.9335    1.7598    2.4175 H      75  UNL75       0.0427
    598 H           3.8467    2.8154    1.5290 H      75  UNL75       0.0241
    599 H           4.8109    4.0059    2.4164 H      75  UNL75       0.0241
    600 H           4.8109    4.0059    0.6416 H      75  UNL75       0.0241
    601 CL          7.6227    0.1327    4.7039 Cl     76  UNL76      -0.1257
    602 C           6.0802   -0.6597    4.3173 C.3    76  UNL76       0.0198
    603 C           4.9157    0.2100    4.7417 C.3    76  UNL76      -0.0517
    604 H           6.0556   -0.8426    3.2393 H      76  UNL76       0.0427
    605 H           6.0556   -1.6220    4.8364 H      76  UNL76       0.0427
    606 H           3.9688   -0.2836    4.5008 H      76  UNL76       0.0241
    607 H           4.9330    0.3971    5.8204 H      76  UNL76       0.0241
    608 H           4.9330    1.1755    4.2254 H      76  UNL76       0.0241
    609 CL          7.4885    2.7286    7.5189 Cl     77  UNL77      -0.1257
    610 C           5.9460    1.8469    7.5189 C.3    77  UNL77       0.0198
    611 C           4.7815    2.8147    7.5189 C.3    77  UNL77      -0.0517
    612 H           5.9214    1.2098    6.6303 H      77  UNL77       0.0427
    613 H           5.9214    1.2098    8.4074 H      77  UNL77       0.0427
    614 H           3.8346    2.2654    7.5189 H      77  UNL77       0.0241
    615 H           4.7988    3.4559    8.4063 H      77  UNL77       0.0241
    616 H           4.7988    3.4559    6.6315 H      77  UNL77       0.0241
    617 CL          7.5006    2.8386   13.4603 Cl     78  UNL78      -0.1257
    618 C           5.9581    1.9569   13.4603 C.3    78  UNL78       0.0198
    619 C           4.7936    2.9247   13.4603 C.3    78  UNL78      -0.0517
    620 H           5.9335    1.3198   12.5717 H      78  UNL78       0.0427
    621 H           5.9335    1.3198   14.3488 H      78  UNL78       0.0427
    622 H           3.8467    2.3754   13.4603 H      78  UNL78       0.0241
    623 H           4.8109    3.5659   14.3477 H      78  UNL78       0.0241
    624 H           4.8109    3.5659   12.5729 H      78  UNL78       0.0241
    625 CL          7.5127    2.7286   19.4381 Cl     79  UNL79      -0.1257
    626 C           5.9702    1.8469   19.4381 C.3    79  UNL79       0.0198
    627 C           4.8057    2.8147   19.4381 C.3    79  UNL79      -0.0517
    628 H           5.9456    1.2098   18.5495 H      79  UNL79       0.0427
    629 H           5.9456    1.2098   20.3266 H      79  UNL79       0.0427
    630 H           3.8588    2.2654   19.4381 H      79  UNL79       0.0241
    631 H           4.8230    3.4559   20.3255 H      79  UNL79       0.0241
    632 H           4.8230    3.4559   18.5507 H      79  UNL79       0.0241
    633 CL          7.5611   -1.1792   20.3634 Cl     80  UNL80      -0.1257
    634 C           6.0186   -0.6515   19.6570 C.3    80  UNL80       0.0198
    635 C           4.8541   -1.2307   20.4324 C.3    80  UNL80      -0.0517
    636 H           5.9940    0.4417   19.6784 H      80  UNL80       0.0427
    637 H           5.9940   -0.9821   18.6149 H      80  UNL80       0.0427
    638 H           3.9072   -0.9020   19.9923 H      80  UNL80       0.0241
    639 H           4.8714   -2.3254   20.4150 H      80  UNL80       0.0241
    640 H           4.8714   -0.9035   21.4771 H      80  UNL80       0.0241
    641 CL          7.5248    2.9486   25.3916 Cl     81  UNL81      -0.1257
    642 C           5.9823    2.0669   25.3916 C.3    81  UNL81       0.0198
    643 C           4.8178    3.0347   25.3916 C.3    81  UNL81      -0.0517
    644 H           5.9577    1.4298   24.5030 H      81  UNL81       0.0427
    645 H           5.9577    1.4298   26.2801 H      81  UNL81       0.0427
    646 H           3.8709    2.4854   25.3916 H      81  UNL81       0.0241
    647 H           4.8351    3.6759   26.2790 H      81  UNL81       0.0241
    648 H           4.8351    3.6759   24.5042 H      81  UNL81       0.0241
    649 CL          6.1010   -0.9078   30.3432 Cl     82  UNL82      -0.1257
    650 C           6.1568   -1.0538   28.5734 C.3    82  UNL82       0.0198
    651 C           4.7714   -0.8935   27.9837 C.3    82  UNL82      -0.0517
    652 H           6.8326   -0.2829   28.1923 H      82  UNL82       0.0427
    653 H           6.5718   -2.0355   28.3286 H      82  UNL82       0.0427
    654 H           4.8127   -0.9845   26.8936 H      82  UNL82       0.0241
    655 H           4.0889   -1.6625   28.3601 H      82  UNL82       0.0241
    656 H           4.3493    0.0878   28.2239 H      82  UNL82       0.0241
    657 CL          7.5248    2.8386   31.3573 Cl     83  UNL83      -0.1257
    658 C           5.9823    1.9569   31.3573 C.3    83  UNL83       0.0198
    659 C           4.8178    2.9247   31.3573 C.3    83  UNL83      -0.0517
    660 H           5.9577    1.3198   30.4687 H      83  UNL83       0.0427
    661 H           5.9577    1.3198   32.2458 H      83  UNL83       0.0427
    662 H           3.8709    2.3754   31.3573 H      83  UNL83       0.0241
    663 H           4.8351    3.5659   32.2447 H      83  UNL83       0.0241
    664 H           4.8351    3.5659   30.4699 H      83  UNL83       0.0241
    665 CL          5.4148    1.0586   35.3401 Cl     84  UNL84      -0.1257
    666 C           3.8723    0.1769   35.3401 C.3    84  UNL84       0.0198
    667 C           2.7078    1.1447   35.3401 C.3    84  UNL84      -0.0517
    668 H           3.8477   -0.4602   34.4515 H      84  UNL84       0.0427
    669 H           3.8477   -0.4602   36.2286 H      84  UNL84       0.0427
    670 H           1.7609    0.5954   35.3401 H      84  UNL84       0.0241
    671 H           2.7251    1.7859   36.2275 H      84  UNL84       0.0241
    672 H           2.7251    1.7859   34.4527 H      84  UNL84       0.0241
    673 CL          7.5006    6.2026    1.2384 Cl     85  UNL85      -0.1257
    674 C           5.9581    5.7941    2.0198 C.3    85  UNL85       0.0198
    675 C           4.7936    6.2425    1.1621 C.3    85  UNL85      -0.0517
    676 H           5.9335    4.7114    2.1726 H      85  UNL85       0.0427
    677 H           5.9335    6.2862    2.9961 H      85  UNL85       0.0427
    678 H           3.8467    5.9880    1.6489 H      85  UNL85       0.0241
    679 H           4.8109    7.3260    1.0051 H      85  UNL85       0.0241
    680 H           4.8109    5.7532    0.1827 H      85  UNL85       0.0241
    681 CL          6.1991    2.0609    4.5119 Cl     86  UNL86      -0.1257
    682 C           5.0742    3.4361    4.5119 C.3    86  UNL86       0.0198
    683 C           5.8358    4.7448    4.5119 C.3    86  UNL86      -0.0517
    684 H           4.4418    3.3549    3.6233 H      86  UNL86       0.0427
    685 H           4.4418    3.3549    5.4004 H      86  UNL86       0.0427
    686 H           5.1373    5.5877    4.5119 H      86  UNL86       0.0241
    687 H           6.4710    4.8339    5.3993 H      86  UNL86       0.0241
    688 H           6.4710    4.8339    3.6245 H      86  UNL86       0.0241
    689 CL          7.5248    5.9826    7.1799 Cl     87  UNL87      -0.1257
    690 C           5.9823    5.5741    7.9612 C.3    87  UNL87       0.0198
    691 C           4.8178    6.0225    7.1036 C.3    87  UNL87      -0.0517
    692 H           5.9577    4.4914    8.1140 H      87  UNL87       0.0427
    693 H           5.9577    6.0662    8.9375 H      87  UNL87       0.0427
    694 H           3.8709    5.7680    7.5904 H      87  UNL87       0.0241
    695 H           4.8351    7.1060    6.9466 H      87  UNL87       0.0241
    696 H           4.8351    5.5332    6.1242 H      87  UNL87       0.0241
    697 CL          4.5534    0.0713   10.4775 Cl     88  UNL88      -0.1257
    698 C           4.7701    1.8348   10.4775 C.3    88  UNL88       0.0198
    699 C           6.2424    2.1885   10.4775 C.3    88  UNL88      -0.0517
    700 H           4.2744    2.2358    9.5889 H      88  UNL88       0.0427
    701 H           4.2744    2.2358   11.3660 H      88  UNL88       0.0427
    702 H           6.3690    3.2759   10.4775 H      88  UNL88       0.0241
    703 H           6.7457    1.7909   11.3649 H      88  UNL88       0.0241
    704 H           6.7457    1.7909    9.5901 H      88  UNL88       0.0241
    705 CL          7.4885    5.7253   13.7278 Cl     89  UNL89      -0.1257
    706 C           5.9460    6.2284   13.0037 C.3    89  UNL89       0.0198
    707 C           4.7815    5.6762   13.7986 C.3    89  UNL89      -0.0517
    708 H           5.9214    7.3217   12.9875 H      89  UNL89       0.0427
    709 H           5.9214    5.8622   11.9736 H      89  UNL89       0.0427
    710 H           3.8346    5.9896   13.3474 H      89  UNL89       0.0241
    711 H           4.7988    4.5816   13.8188 H      89  UNL89       0.0241
    712 H           4.7988    6.0391   14.8315 H      89  UNL89       0.0241
    713 CL          3.7463    4.5033   17.5076 Cl     90  UNL90      -0.1257
    714 C           4.7825    4.0034   16.1537 C.3    90  UNL90       0.0198
    715 C           6.2354    3.9767   16.5790 C.3    90  UNL90      -0.0517
    716 H           4.4554    3.0124   15.8264 H      90  UNL90       0.0427
    717 H           4.6309    4.7108   15.3336 H      90  UNL90       0.0427
    718 H           6.8682    3.6681   15.7407 H      90  UNL90       0.0241
    719 H           6.5706    4.9659   16.9076 H      90  UNL90       0.0241
    720 H           6.3954    3.2698   17.3997 H      90  UNL90       0.0241
    721 CL          7.5611    4.4295   19.4381 Cl     91  UNL91      -0.1257
    722 C           6.0186    3.5478   19.4381 C.3    91  UNL91       0.0198
    723 C           4.8541    4.5156   19.4381 C.3    91  UNL91      -0.0517
    724 H           5.9940    2.9107   18.5495 H      91  UNL91       0.0427
    725 H           5.9940    2.9107   20.3266 H      91  UNL91       0.0427
    726 H           3.9072    3.9663   19.4381 H      91  UNL91       0.0241
    727 H           4.8714    5.1568   20.3255 H      91  UNL91       0.0241
    728 H           4.8714    5.1568   18.5507 H      91  UNL91       0.0241
    729 CL          6.1451    3.6911   22.4209 Cl     92  UNL92      -0.1257
    730 C           6.2117    1.9157   22.4209 C.3    92  UNL92       0.0198
    731 C           4.8144    1.3322   22.4209 C.3    92  UNL92      -0.0517
    732 H           6.7649    1.5986   21.5323 H      92  UNL92       0.0427
    733 H           6.7649    1.5986   23.3094 H      92  UNL92       0.0427
    734 H           4.8625    0.2385   22.4209 H      92  UNL92       0.0241
    735 H           4.2543    1.6446   23.3083 H      92  UNL92       0.0241
    736 H           4.2543    1.6446   21.5335 H      92  UNL92       0.0241
    737 CL          7.4885    6.0632   25.3553 Cl     93  UNL93      -0.1257
    738 C           5.9460    5.1815   25.3553 C.3    93  UNL93       0.0198
    739 C           4.7815    6.1493   25.3553 C.3    93  UNL93      -0.0517
    740 H           5.9214    4.5444   24.4667 H      93  UNL93       0.0427
    741 H           5.9214    4.5444   26.2438 H      93  UNL93       0.0427
    742 H           3.8346    5.6000   25.3553 H      93  UNL93       0.0241
    743 H           4.7988    6.7905   26.2427 H      93  UNL93       0.0241
    744 H           4.7988    6.7905   24.4679 H      93  UNL93       0.0241
    745 CL          4.7475    5.4332   27.0581 Cl     94  UNL94      -0.1257
    746 C           5.5026    4.7251   28.5022 C.3    94  UNL94       0.0198
    747 C           5.4662    3.2129   28.4326 C.3    94  UNL94      -0.0517
    748 H           6.5334    5.0866   28.5558 H      94  UNL94       0.0427
    749 H           4.9586    5.0866   29.3792 H      94  UNL94       0.0427
    750 H           5.9327    2.7830   29.3248 H      94  UNL94       0.0241
    751 H           4.4370    2.8431   28.3794 H      94  UNL94       0.0241
    752 H           6.0098    2.8431   27.5570 H      94  UNL94       0.0241
    753 CL          7.5127    6.2832   31.3573 Cl     95  UNL95      -0.1257
    754 C           5.9702    5.4015   31.3573 C.3    95  UNL95       0.0198
    755 C           4.8057    6.3693   31.3573 C.3    95  UNL95      -0.0517
    756 H           5.9456    4.7644   30.4687 H      95  UNL95       0.0427
    757 H           5.9456    4.7644   32.2458 H      95  UNL95       0.0427
    758 H           3.8588    5.8200   31.3573 H      95  UNL95       0.0241
    759 H           4.8230    7.0105   32.2447 H      95  UNL95       0.0241
    760 H           4.8230    7.0105   30.4699 H      95  UNL95       0.0241
    761 CL          7.5006    4.3932   35.3401 Cl     96  UNL96      -0.1257
    762 C           5.9581    3.5115   35.3401 C.3    96  UNL96       0.0198
    763 C           4.7936    4.4793   35.3401 C.3    96  UNL96      -0.0517
    764 H           5.9335    2.8744   34.4515 H      96  UNL96       0.0427
    765 H           5.9335    2.8744   36.2286 H      96  UNL96       0.0427
    766 H           3.8467    3.9300   35.3401 H      96  UNL96       0.0241
    767 H           4.8109    5.1205   36.2275 H      96  UNL96       0.0241
    768 H           4.8109    5.1205   34.4527 H      96  UNL96       0.0241
    769 CL          7.4885    9.7278    1.5290 Cl     97  UNL97      -0.1257
    770 C           5.9460    8.8461    1.5290 C.3    97  UNL97       0.0198
    771 C           4.7815    9.8139    1.5290 C.3    97  UNL97      -0.0517
    772 H           5.9214    8.2090    0.6404 H      97  UNL97       0.0427
    773 H           5.9214    8.2090    2.4175 H      97  UNL97       0.0427
    774 H           3.8346    9.2646    1.5290 H      97  UNL97       0.0241
    775 H           4.7988   10.4551    2.4164 H      97  UNL97       0.0241
    776 H           4.7988   10.4551    0.6416 H      97  UNL97       0.0241
    777 CL          7.5611    7.7641    4.4877 Cl     98  UNL98      -0.1257
    778 C           6.0186    6.8824    4.4877 C.3    98  UNL98       0.0198
    779 C           4.8541    7.8502    4.4877 C.3    98  UNL98      -0.0517
    780 H           5.9940    6.2453    3.5991 H      98  UNL98       0.0427
    781 H           5.9940    6.2453    5.3762 H      98  UNL98       0.0427
    782 H           3.9072    7.3009    4.4877 H      98  UNL98       0.0241
    783 H           4.8714    8.4914    5.3751 H      98  UNL98       0.0241
    784 H           4.8714    8.4914    3.6003 H      98  UNL98       0.0241
    785 CL          7.5248    9.7278    7.4826 Cl     99  UNL99      -0.1257
    786 C           5.9823    8.8461    7.4826 C.3    99  UNL99       0.0198
    787 C           4.8178    9.8139    7.4826 C.3    99  UNL99      -0.0517
    788 H           5.9577    8.2090    6.5940 H      99  UNL99       0.0427
    789 H           5.9577    8.2090    8.3711 H      99  UNL99       0.0427
    790 H           3.8709    9.2646    7.4826 H      99  UNL99       0.0241
    791 H           4.8351   10.4551    8.3700 H      99  UNL99       0.0241
    792 H           4.8351   10.4551    6.5952 H      99  UNL99       0.0241
    793 CL          6.1451    7.0257   10.4896 Cl    100  UNL100     -0.1257
    794 C           6.2117    5.2502   10.4896 C.3   100  UNL100      0.0198
    795 C           4.8144    4.6667   10.4896 C.3   100  UNL100     -0.0517
    796 H           6.7649    4.9332    9.6010 H     100  UNL100      0.0427
    797 H           6.7649    4.9332   11.3781 H     100  UNL100      0.0427
    798 H           4.8625    3.5731   10.4896 H     100  UNL100      0.0241
    799 H           4.2543    4.9792   11.3770 H     100  UNL100      0.0241
    800 H           4.2543    4.9792    9.6022 H     100  UNL100      0.0241
    801 CL          6.4599    9.6178   11.6539 Cl    101  UNL101     -0.1257
    802 C           5.7451    8.7361   13.0208 C.3   101  UNL101      0.0198
    803 C           5.2055    9.7039   14.0528 C.3   101  UNL101     -0.0517
    804 H           4.9463    8.0990   12.6309 H     101  UNL101      0.0427
    805 H           6.5211    8.0990   13.4543 H     101  UNL101      0.0427
    806 H           4.7668    9.1546   14.8919 H     101  UNL101      0.0241
    807 H           5.9999   10.3451   14.4486 H     101  UNL101      0.0241
    808 H           4.4272   10.3451   13.6262 H     101  UNL101      0.0241
    809 CL          3.7221    7.8742   17.5318 Cl    102  UNL102     -0.1257
    810 C           4.7583    7.3743   16.1779 C.3   102  UNL102      0.0198
    811 C           6.2112    7.3476   16.6032 C.3   102  UNL102     -0.0517
    812 H           4.4312    6.3833   15.8506 H     102  UNL102      0.0427
    813 H           4.6067    8.0816   15.3578 H     102  UNL102      0.0427
    814 H           6.8440    7.0390   15.7649 H     102  UNL102      0.0241
    815 H           6.5464    8.3368   16.9318 H     102  UNL102      0.0241
    816 H           6.3712    6.6406   17.4239 H     102  UNL102      0.0241
    817 CL          4.8548    7.1600   19.1414 Cl    103  UNL103     -0.1257
    818 C           3.3123    7.6877   19.8478 C.3   103  UNL103      0.0198
    819 C           2.1478    7.1085   19.0724 C.3   103  UNL103     -0.0517
    820 H           3.2877    7.3570   20.8900 H     103  UNL103      0.0427
    821 H           3.2877    8.7808   19.8264 H     103  UNL103      0.0427
    822 H           1.2009    7.4372   19.5125 H     103  UNL103      0.0241
    823 H           2.1651    7.4357   18.0276 H     103  UNL103      0.0241
    824 H           2.1651    6.0138   19.0898 H     103  UNL103      0.0241
    825 CL          4.4929    3.5159   22.4088 Cl    104  UNL104     -0.1257
    826 C           4.7096    5.2794   22.4088 C.3   104  UNL104      0.0198
    827 C           6.1819    5.6331   22.4088 C.3   104  UNL104     -0.0517
    828 H           4.2139    5.6803   21.5202 H     104  UNL104      0.0427
    829 H           4.2139    5.6803   23.2973 H     104  UNL104      0.0427
    830 H           6.3085    6.7205   22.4088 H     104  UNL104      0.0241
    831 H           6.6852    5.2355   23.2962 H     104  UNL104      0.0241
    832 H           6.6852    5.2355   21.5214 H     104  UNL104      0.0241
    833 CL          7.5490    8.3978   25.3674 Cl    105  UNL105     -0.1257
    834 C           6.0065    7.5161   25.3674 C.3   105  UNL105      0.0198
    835 C           4.8420    8.4839   25.3674 C.3   105  UNL105     -0.0517
    836 H           5.9819    6.8790   24.4788 H     105  UNL105      0.0427
    837 H           5.9819    6.8790   26.2559 H     105  UNL105      0.0427
    838 H           3.8951    7.9346   25.3674 H     105  UNL105      0.0241
    839 H           4.8593    9.1251   26.2548 H     105  UNL105      0.0241
    840 H           4.8593    9.1251   24.4800 H     105  UNL105      0.0241
    841 CL          7.5611    7.7641   28.3987 Cl    106  UNL106     -0.1257
    842 C           6.0186    6.8824   28.3987 C.3   106  UNL106      0.0198
    843 C           4.8541    7.8502   28.3987 C.3   106  UNL106     -0.0517
    844 H           5.9940    6.2453   27.5101 H     106  UNL106      0.0427
    845 H           5.9940    6.2453   29.2872 H     106  UNL106      0.0427
    846 H           3.9072    7.3009   28.3987 H     106  UNL106      0.0241
    847 H           4.8714    8.4914   29.2861 H     106  UNL106      0.0241
    848 H           4.8714    8.4914   27.5113 H     106  UNL106      0.0241
    849 CL          7.5127    9.4272   31.6721 Cl    107  UNL107     -0.1257
    850 C           5.9702    9.0186   30.8907 C.3   107  UNL107      0.0198
    851 C           4.8057    9.4671   31.7484 C.3   107  UNL107     -0.0517
    852 H           5.9456    9.5108   29.9144 H     107  UNL107      0.0427
    853 H           5.9456    7.9360   30.7379 H     107  UNL107      0.0427
    854 H           3.8588    9.2125   31.2616 H     107  UNL107      0.0241
    855 H           4.8230    8.9778   32.7278 H     107  UNL107      0.0241
    856 H           4.8230   10.5506   31.9054 H     107  UNL107      0.0241
    857 CL          7.4885    7.7641   35.0101 Cl    108  UNL108     -0.1257
    858 C           5.9460    6.8824   35.0101 C.3   108  UNL108      0.0198
    859 C           4.7815    7.8502   35.0101 C.3   108  UNL108     -0.0517
    860 H           5.9214    6.2453   34.1215 H     108  UNL108      0.0427
    861 H           5.9214    6.2453   35.8986 H     108  UNL108      0.0427
    862 H           3.8346    7.3009   35.0101 H     108  UNL108      0.0241
    863 H           4.7988    8.4914   35.8975 H     108  UNL108      0.0241
    864 H           4.7988    8.4914   34.1227 H     108  UNL108      0.0241
    865 CL          7.4885   12.7324    1.5290 Cl    109  UNL109     -0.1257
    866 C           5.9460   11.8507    1.5290 C.3   109  UNL109      0.0198
    867 C           4.7815   12.8185    1.5290 C.3   109  UNL109     -0.0517
    868 H           5.9214   11.2136    0.6404 H     109  UNL109      0.0427
    869 H           5.9214   11.2136    2.4175 H     109  UNL109      0.0427
    870 H           3.8346   12.2692    1.5290 H     109  UNL109      0.0241
    871 H           4.7988   13.4597    2.4164 H     109  UNL109      0.0241
    872 H           4.7988   13.4597    0.6416 H     109  UNL109      0.0241
    873 CL          7.5006   11.0624    4.5119 Cl    110  UNL110     -0.1257
    874 C           5.9581   10.1807    4.5119 C.3   110  UNL110      0.0198
    875 C           4.7936   11.1485    4.5119 C.3   110  UNL110     -0.0517
    876 H           5.9335    9.5436    3.6233 H     110  UNL110      0.0427
    877 H           5.9335    9.5436    5.4004 H     110  UNL110      0.0427
    878 H           3.8467   10.5992    4.5119 H     110  UNL110      0.0241
    879 H           4.8109   11.7897    5.3993 H     110  UNL110      0.0241
    880 H           4.8109   11.7897    3.6245 H     110  UNL110      0.0241
    881 CL          7.5248   12.9524    7.4947 Cl    111  UNL111     -0.1257
    882 C           5.9823   12.0707    7.4947 C.3   111  UNL111      0.0198
    883 C           4.8178   13.0385    7.4947 C.3   111  UNL111     -0.0517
    884 H           5.9577   11.4336    6.6061 H     111  UNL111      0.0427
    885 H           5.9577   11.4336    8.3832 H     111  UNL111      0.0427
    886 H           3.8709   12.4892    7.4947 H     111  UNL111      0.0241
    887 H           4.8351   13.6797    8.3821 H     111  UNL111      0.0241
    888 H           4.8351   13.6797    6.6073 H     111  UNL111      0.0241
    889 CL          4.4929    6.5205   10.4412 Cl    112  UNL112     -0.1257
    890 C           4.7096    8.2839   10.4412 C.3   112  UNL112      0.0198
    891 C           6.1819    8.6377   10.4412 C.3   112  UNL112     -0.0517
    892 H           4.2139    8.6849    9.5526 H     112  UNL112      0.0427
    893 H           4.2139    8.6849   11.3297 H     112  UNL112      0.0427
    894 H           6.3085    9.7250   10.4412 H     112  UNL112      0.0241
    895 H           6.6852    8.2401   11.3286 H     112  UNL112      0.0241
    896 H           6.6852    8.2401    9.5538 H     112  UNL112      0.0241
    897 CL          7.5006   12.9817   13.7509 Cl    113  UNL113     -0.1257
    898 C           5.9581   12.5732   12.9696 C.3   113  UNL113      0.0198
    899 C           4.7936   13.0216   13.8272 C.3   113  UNL113     -0.0517
    900 H           5.9335   13.0654   11.9933 H     113  UNL113      0.0427
    901 H           5.9335   11.4906   12.8167 H     113  UNL113      0.0427
    902 H           3.8467   12.7671   13.3404 H     113  UNL113      0.0241
    903 H           4.8109   12.5324   14.8066 H     113  UNL113      0.0241
    904 H           4.8109   14.1051   13.9842 H     113  UNL113      0.0241
    905 CL          4.4069   11.2087   14.5349 Cl    114  UNL114     -0.1257
    906 C           5.0980   10.3270   15.9138 C.3   114  UNL114      0.0198
    907 C           5.6198   11.2948   16.9549 C.3   114  UNL114     -0.0517
    908 H           4.3147    9.6899   16.3340 H     114  UNL114      0.0427
    909 H           5.9034    9.6899   15.5377 H     114  UNL114      0.0427
    910 H           6.0441   10.7455   17.8014 H     114  UNL114      0.0241
    911 H           6.4054   11.9360   16.5418 H     114  UNL114      0.0241
    912 H           4.8187   11.9360   17.3371 H     114  UNL114      0.0241
    913 CL          4.0893   12.4563   19.4139 Cl    115  UNL115     -0.1257
    914 C           5.5687   11.4723   19.4139 C.3   115  UNL115      0.0198
    915 C           5.2253    9.9976   19.4139 C.3   115  UNL115     -0.0517
    916 H           6.1493   11.7358   18.5253 H     115  UNL115      0.0427
    917 H           6.1493   11.7358   20.3024 H     115  UNL115      0.0427
    918 H           6.1406    9.3972   19.4139 H     115  UNL115      0.0241
    919 H           4.6443    9.7258   20.3013 H     115  UNL115      0.0241
    920 H           4.6443    9.7258   18.5265 H     115  UNL115      0.0241
    921 CL          6.0967   10.4703   22.3846 Cl    116  UNL116     -0.1257
    922 C           6.1633    8.6948   22.3846 C.3   116  UNL116      0.0198
    923 C           4.7660    8.1113   22.3846 C.3   116  UNL116     -0.0517
    924 H           6.7164    8.3778   21.4960 H     116  UNL116      0.0427
    925 H           6.7164    8.3778   23.2731 H     116  UNL116      0.0427
    926 H           4.8140    7.0177   22.3846 H     116  UNL116      0.0241
    927 H           4.2059    8.4238   23.2720 H     116  UNL116      0.0241
    928 H           4.2059    8.4238   21.4972 H     116  UNL116      0.0241
    929 CL          7.4269   13.1724   24.5016 Cl    117  UNL117     -0.1257
    930 C           5.8844   12.2907   24.5016 C.3   117  UNL117      0.0198
    931 C           4.7199   13.2585   24.5016 C.3   117  UNL117     -0.0517
    932 H           5.8598   11.6536   23.6130 H     117  UNL117      0.0427
    933 H           5.8598   11.6536   25.3901 H     117  UNL117      0.0427
    934 H           3.7730   12.7092   24.5016 H     117  UNL117      0.0241
    935 H           4.7372   13.8997   25.3890 H     117  UNL117      0.0241
    936 H           4.7372   13.8997   23.6142 H     117  UNL117      0.0241
    937 CL          7.4885   10.8597   26.1697 Cl    118  UNL118     -0.1257
    938 C           5.9460   10.4511   26.9510 C.3   118  UNL118      0.0198
    939 C           4.7815   10.8996   26.0934 C.3   118  UNL118     -0.0517
    940 H           5.9214    9.3684   27.1038 H     118  UNL118      0.0427
    941 H           5.9214   10.9432   27.9273 H     118  UNL118      0.0427
    942 H           3.8346   10.6450   26.5801 H     118  UNL118      0.0241
    943 H           4.7988   11.9830   25.9364 H     118  UNL118      0.0241
    944 H           4.7988   10.4103   25.1140 H     118  UNL118      0.0241
    945 CL          7.5127   12.5417   31.6721 Cl    119  UNL119     -0.1257
    946 C           5.9702   12.1332   30.8907 C.3   119  UNL119      0.0198
    947 C           4.8057   12.5816   31.7484 C.3   119  UNL119     -0.0517
    948 H           5.9456   12.6254   29.9144 H     119  UNL119      0.0427
    949 H           5.9456   11.0506   30.7379 H     119  UNL119      0.0427
    950 H           3.8588   12.3271   31.2616 H     119  UNL119      0.0241
    951 H           4.8230   12.0924   32.7278 H     119  UNL119      0.0241
    952 H           4.8230   13.6651   31.9054 H     119  UNL119      0.0241
    953 CL          7.5248   11.0624   35.3401 Cl    120  UNL120     -0.1257
    954 C           5.9823   10.1807   35.3401 C.3   120  UNL120      0.0198
    955 C           4.8178   11.1485   35.3401 C.3   120  UNL120     -0.0517
    956 H           5.9577    9.5436   34.4515 H     120  UNL120      0.0427
    957 H           5.9577    9.5436   36.2286 H     120  UNL120      0.0427
    958 H           3.8709   10.5992   35.3401 H     120  UNL120      0.0241
    959 H           4.8351   11.7897   36.2275 H     120  UNL120      0.0241
    960 H           4.8351   11.7897   34.4527 H     120  UNL120      0.0241
    961 CL          7.4885   15.5091    1.2373 Cl    121  UNL121     -0.1257
    962 C           5.9460   16.0121    1.9614 C.3   121  UNL121      0.0198
    963 C           4.7815   15.4599    1.1666 C.3   121  UNL121     -0.0517
    964 H           5.9214   15.6459    2.9916 H     121  UNL121      0.0427
    965 H           5.9214   17.1053    1.9776 H     121  UNL121      0.0427
    966 H           3.8346   15.7733    1.6177 H     121  UNL121      0.0241
    967 H           4.7988   15.8228    0.1337 H     121  UNL121      0.0241
    968 H           4.7988   14.3653    1.1463 H     121  UNL121      0.0241
    969 CL          7.5248   14.3969    4.5119 Cl    122  UNL122     -0.1257
    970 C           5.9823   13.5152    4.5119 C.3   122  UNL122      0.0198
    971 C           4.8178   14.4830    4.5119 C.3   122  UNL122     -0.0517
    972 H           5.9577   12.8781    3.6233 H     122  UNL122      0.0427
    973 H           5.9577   12.8781    5.4004 H     122  UNL122      0.0427
    974 H           3.8709   13.9337    4.5119 H     122  UNL122      0.0241
    975 H           4.8351   15.1242    5.3993 H     122  UNL122      0.0241
    976 H           4.8351   15.1242    3.6245 H     122  UNL122      0.0241
    977 CL          7.4885   16.0669    7.4947 Cl    123  UNL123     -0.1257
    978 C           5.9460   15.1852    7.4947 C.3   123  UNL123      0.0198
    979 C           4.7815   16.1530    7.4947 C.3   123  UNL123     -0.0517
    980 H           5.9214   14.5481    6.6061 H     123  UNL123      0.0427
    981 H           5.9214   14.5481    8.3832 H     123  UNL123      0.0427
    982 H           3.8346   15.6037    7.4947 H     123  UNL123      0.0241
    983 H           4.7988   16.7942    8.3821 H     123  UNL123      0.0241
    984 H           4.7988   16.7942    6.6073 H     123  UNL123      0.0241
    985 CL          6.1451   13.6948   10.4654 Cl    124  UNL124     -0.1257
    986 C           6.2117   11.9194   10.4654 C.3   124  UNL124      0.0198
    987 C           4.8144   11.3359   10.4654 C.3   124  UNL124     -0.0517
    988 H           6.7649   11.6024    9.5768 H     124  UNL124      0.0427
    989 H           6.7649   11.6024   11.3539 H     124  UNL124      0.0427
    990 H           4.8625   10.2423   10.4654 H     124  UNL124      0.0241
    991 H           4.2543   11.6483   11.3528 H     124  UNL124      0.0241
    992 H           4.2543   11.6483    9.5780 H     124  UNL124      0.0241
    993 CL          7.4885   15.6190   13.7399 Cl    125  UNL125     -0.1257
    994 C           5.9460   16.1221   13.0159 C.3   125  UNL125      0.0198
    995 C           4.7815   15.5699   13.8107 C.3   125  UNL125     -0.0517
    996 H           5.9214   17.2154   12.9996 H     125  UNL125      0.0427
    997 H           5.9214   15.7559   11.9857 H     125  UNL125      0.0427
    998 H           3.8346   15.8833   13.3595 H     125  UNL125      0.0241
    999 H           4.7988   14.4753   13.8309 H     125  UNL125      0.0241
   1000 H           4.7988   15.9328   14.8436 H     125  UNL125      0.0241
   1001 CL          4.4071   15.6753   15.7158 Cl    126  UNL126     -0.1257
   1002 C           4.7739   14.1717   16.5883 C.3   126  UNL126      0.0198
   1003 C           6.2286   13.7934   16.4055 C.3   126  UNL126     -0.0517
   1004 H           4.5439   14.3302   17.6456 H     126  UNL126      0.0427
   1005 H           4.1172   13.3878   16.2007 H     126  UNL126      0.0427
   1006 H           6.4480   12.8666   16.9452 H     126  UNL126      0.0241
   1007 H           6.4667   13.6322   15.3489 H     126  UNL126      0.0241
   1008 H           6.8928   14.5734   16.7920 H     126  UNL126      0.0241
   1009 CL          7.5006   14.4332   19.4018 Cl    127  UNL127     -0.1257
   1010 C           5.9581   13.5515   19.4018 C.3   127  UNL127      0.0198
   1011 C           4.7936   14.5193   19.4018 C.3   127  UNL127     -0.0517
   1012 H           5.9335   12.9144   18.5132 H     127  UNL127      0.0427
   1013 H           5.9335   12.9144   20.2903 H     127  UNL127      0.0427
   1014 H           3.8467   13.9700   19.4018 H     127  UNL127      0.0241
   1015 H           4.8109   15.1605   20.2892 H     127  UNL127      0.0241
   1016 H           4.8109   15.1605   18.5144 H     127  UNL127      0.0241
   1017 CL          4.8081   15.4853   23.7614 Cl    128  UNL128     -0.1257
   1018 C           5.5631   14.7772   22.3174 C.3   128  UNL128      0.0198
   1019 C           5.5268   13.2651   22.3869 C.3   128  UNL128     -0.0517
   1020 H           5.0190   15.1388   21.4403 H     128  UNL128      0.0427
   1021 H           6.5938   15.1388   22.2637 H     128  UNL128      0.0427
   1022 H           5.9933   12.8352   21.4948 H     128  UNL128      0.0241
   1023 H           6.0703   12.8952   23.2625 H     128  UNL128      0.0241
   1024 H           4.4975   12.8952   22.4401 H     128  UNL128      0.0241
   1025 CL          7.4885   16.0669   25.4279 Cl    129  UNL129     -0.1257
   1026 C           5.9460   15.1852   25.4279 C.3   129  UNL129      0.0198
   1027 C           4.7815   16.1530   25.4279 C.3   129  UNL129     -0.0517
   1028 H           5.9214   14.5481   24.5393 H     129  UNL129      0.0427
   1029 H           5.9214   14.5481   26.3164 H     129  UNL129      0.0427
   1030 H           3.8346   15.6037   25.4279 H     129  UNL129      0.0241
   1031 H           4.7988   16.7942   26.3153 H     129  UNL129      0.0241
   1032 H           4.7988   16.7942   24.5405 H     129  UNL129      0.0241
   1033 CL          4.5292   12.1851   28.3745 Cl    130  UNL130     -0.1257
   1034 C           4.7459   13.9485   28.3745 C.3   130  UNL130      0.0198
   1035 C           6.2182   14.3023   28.3745 C.3   130  UNL130     -0.0517
   1036 H           4.2502   14.3495   27.4859 H     130  UNL130      0.0427
   1037 H           4.2502   14.3495   29.2630 H     130  UNL130      0.0427
   1038 H           6.3448   15.3896   28.3745 H     130  UNL130      0.0241
   1039 H           6.7215   13.9047   29.2619 H     130  UNL130      0.0241
   1040 H           6.7215   13.9047   27.4871 H     130  UNL130      0.0241
   1041 CL          4.8119   13.9372   32.4421 Cl    131  UNL131     -0.1257
   1042 C           5.8323   15.2800   31.8833 C.3   131  UNL131      0.0198
   1043 C           5.1385   16.0501   30.7795 C.3   131  UNL131     -0.0517
   1044 H           6.0361   15.9284   32.7402 H     131  UNL131      0.0427
   1045 H           6.7779   14.8605   31.5288 H     131  UNL131      0.0427
   1046 H           5.7721   16.8757   30.4398 H     131  UNL131      0.0241
   1047 H           4.9316   15.4077   29.9173 H     131  UNL131      0.0241
   1048 H           4.1907   16.4742   31.1271 H     131  UNL131      0.0241
   1049 CL          7.5248   14.3969   35.3401 Cl    132  UNL132     -0.1257
   1050 C           5.9823   13.5152   35.3401 C.3   132  UNL132      0.0198
   1051 C           4.8178   14.4830   35.3401 C.3   132  UNL132     -0.0517
   1052 H           5.9577   12.8781   34.4515 H     132  UNL132      0.0427
   1053 H           5.9577   12.8781   36.2286 H     132  UNL132      0.0427
   1054 H           3.8709   13.9337   35.3401 H     132  UNL132      0.0241
   1055 H           4.8351   15.1242   36.2275 H     132  UNL132      0.0241
   1056 H           4.8351   15.1242   34.4527 H     132  UNL132      0.0241
   1057 CL          7.4885   18.7315    1.4927 Cl    133  UNL133     -0.1257
   1058 C           5.9460   17.8498    1.4927 C.3   133  UNL133      0.0198
   1059 C           4.7815   18.8176    1.4927 C.3   133  UNL133     -0.0517
   1060 H           5.9214   17.2127    0.6041 H     133  UNL133      0.0427
   1061 H           5.9214   17.2127    2.3812 H     133  UNL133      0.0427
   1062 H           3.8346   18.2683    1.4927 H     133  UNL133      0.0241
   1063 H           4.7988   19.4588    2.3801 H     133  UNL133      0.0241
   1064 H           4.7988   19.4588    0.6053 H     133  UNL133      0.0241
   1065 CL          7.5490   18.7315    4.5119 Cl    134  UNL134     -0.1257
   1066 C           6.0065   17.8498    4.5119 C.3   134  UNL134      0.0198
   1067 C           4.8420   18.8176    4.5119 C.3   134  UNL134     -0.0517
   1068 H           5.9819   17.2127    3.6233 H     134  UNL134      0.0427
   1069 H           5.9819   17.2127    5.4004 H     134  UNL134      0.0427
   1070 H           3.8951   18.2683    4.5119 H     134  UNL134      0.0241
   1071 H           4.8593   19.4588    5.3993 H     134  UNL134      0.0241
   1072 H           4.8593   19.4588    3.6245 H     134  UNL134      0.0241
   1073 CL          7.5127   18.7315    7.5310 Cl    135  UNL135     -0.1257
   1074 C           5.9702   17.8498    7.5310 C.3   135  UNL135      0.0198
   1075 C           4.8057   18.8176    7.5310 C.3   135  UNL135     -0.0517
   1076 H           5.9456   17.2127    6.6424 H     135  UNL135      0.0427
   1077 H           5.9456   17.2127    8.4195 H     135  UNL135      0.0427
   1078 H           3.8588   18.2683    7.5310 H     135  UNL135      0.0241
   1079 H           4.8230   19.4588    8.4184 H     135  UNL135      0.0241
   1080 H           4.8230   19.4588    6.6436 H     135  UNL135      0.0241
   1081 CL          4.4929   13.6296   10.4533 Cl    136  UNL136     -0.1257
   1082 C           4.7096   15.3931   10.4533 C.3   136  UNL136      0.0198
   1083 C           6.1819   15.7468   10.4533 C.3   136  UNL136     -0.0517
   1084 H           4.2139   15.7941    9.5647 H     136  UNL136      0.0427
   1085 H           4.2139   15.7941   11.3418 H     136  UNL136      0.0427
   1086 H           6.3085   16.8342   10.4533 H     136  UNL136      0.0241
   1087 H           6.6852   15.3492   11.3407 H     136  UNL136      0.0241
   1088 H           6.6852   15.3492    9.5659 H     136  UNL136      0.0241
   1089 CL          7.5611   18.5115   13.4361 Cl    137  UNL137     -0.1257
   1090 C           6.0186   17.6298   13.4361 C.3   137  UNL137      0.0198
   1091 C           4.8541   18.5976   13.4361 C.3   137  UNL137     -0.0517
   1092 H           5.9940   16.9927   12.5475 H     137  UNL137      0.0427
   1093 H           5.9940   16.9927   14.3246 H     137  UNL137      0.0427
   1094 H           3.9072   18.0483   13.4361 H     137  UNL137      0.0241
   1095 H           4.8714   19.2388   14.3235 H     137  UNL137      0.0241
   1096 H           4.8714   19.2388   12.5487 H     137  UNL137      0.0241
   1097 CL          6.3994   18.7315   14.6609 Cl    138  UNL138     -0.1257
   1098 C           5.6846   17.8498   16.0278 C.3   138  UNL138      0.0198
   1099 C           5.1450   18.8176   17.0598 C.3   138  UNL138     -0.0517
   1100 H           4.8858   17.2127   15.6379 H     138  UNL138      0.0427
   1101 H           6.4606   17.2127   16.4613 H     138  UNL138      0.0427
   1102 H           4.7063   18.2683   17.8989 H     138  UNL138      0.0241
   1103 H           5.9394   19.4588   17.4556 H     138  UNL138      0.0241
   1104 H           4.3667   19.4588   16.6333 H     138  UNL138      0.0241
   1105 CL          5.3048   18.7315   19.4260 Cl    139  UNL139     -0.1257
   1106 C           3.7623   17.8498   19.4260 C.3   139  UNL139      0.0198
   1107 C           2.5978   18.8176   19.4260 C.3   139  UNL139     -0.0517
   1108 H           3.7377   17.2127   18.5374 H     139  UNL139      0.0427
   1109 H           3.7377   17.2127   20.3145 H     139  UNL139      0.0427
   1110 H           1.6509   18.2683   19.4260 H     139  UNL139      0.0241
   1111 H           2.6151   19.4588   20.3134 H     139  UNL139      0.0241
   1112 H           2.6151   19.4588   18.5386 H     139  UNL139      0.0241
   1113 CL          6.4236   18.7315   24.1910 Cl    140  UNL140     -0.1257
   1114 C           5.7088   17.8498   22.8241 C.3   140  UNL140      0.0198
   1115 C           5.1692   18.8176   21.7922 C.3   140  UNL140     -0.0517
   1116 H           6.4849   17.2127   22.3906 H     140  UNL140      0.0427
   1117 H           4.9101   17.2127   23.2140 H     140  UNL140      0.0427
   1118 H           4.7305   18.2683   20.9531 H     140  UNL140      0.0241
   1119 H           4.3909   19.4588   22.2187 H     140  UNL140      0.0241
   1120 H           5.9636   19.4588   21.3963 H     140  UNL140      0.0241
   1121 CL          7.5611   18.7315   25.4279 Cl    141  UNL141     -0.1257
   1122 C           6.0186   17.8498   25.4279 C.3   141  UNL141      0.0198
   1123 C           4.8541   18.8176   25.4279 C.3   141  UNL141     -0.0517
   1124 H           5.9940   17.2127   24.5393 H     141  UNL141      0.0427
   1125 H           5.9940   17.2127   26.3164 H     141  UNL141      0.0427
   1126 H           3.9072   18.2683   25.4279 H     141  UNL141      0.0241
   1127 H           4.8714   19.4588   26.3153 H     141  UNL141      0.0241
   1128 H           4.8714   19.4588   24.5405 H     141  UNL141      0.0241
   1129 CL          7.5490   18.7315   28.3987 Cl    142  UNL142     -0.1257
   1130 C           6.0065   17.8498   28.3987 C.3   142  UNL142      0.0198
   1131 C           4.8420   18.8176   28.3987 C.3   142  UNL142     -0.0517
   1132 H           5.9819   17.2127   27.5101 H     142  UNL142      0.0427
   1133 H           5.9819   17.2127   29.2872 H     142  UNL142      0.0427
   1134 H           3.8951   18.2683   28.3987 H     142  UNL142      0.0241
   1135 H           4.8593   19.4588   29.2861 H     142  UNL142      0.0241
   1136 H           4.8593   19.4588   27.5113 H     142  UNL142      0.0241
   1137 CL          7.5127   18.7315   31.3936 Cl    143  UNL143     -0.1257
   1138 C           5.9702   17.8498   31.3936 C.3   143  UNL143      0.0198
   1139 C           4.8057   18.8176   31.3936 C.3   143  UNL143     -0.0517
   1140 H           5.9456   17.2127   30.5050 H     143  UNL143      0.0427
   1141 H           5.9456   17.2127   32.2821 H     143  UNL143      0.0427
   1142 H           3.8588   18.2683   31.3936 H     143  UNL143      0.0241
   1143 H           4.8230   19.4588   32.2810 H     143  UNL143      0.0241
   1144 H           4.8230   19.4588   30.5062 H     143  UNL143      0.0241
   1145 CL          5.8548   18.7315   34.3401 Cl    144  UNL144     -0.1257
   1146 C           4.3123   17.8498   34.3401 C.3   144  UNL144      0.0198
   1147 C           3.1478   18.8176   34.3401 C.3   144  UNL144     -0.0517
   1148 H           4.2877   17.2127   33.4515 H     144  UNL144      0.0427
   1149 H           4.2877   17.2127   35.2286 H     144  UNL144      0.0427
   1150 H           2.2009   18.2683   34.3401 H     144  UNL144      0.0241
   1151 H           3.1651   19.4588   35.2275 H     144  UNL144      0.0241
   1152 H           3.1651   19.4588   33.4527 H     144  UNL144      0.0241
   1153 CL         12.4027   -0.4959   10.5017 Cl    145  UNL145     -0.1257
   1154 C          10.8602   -1.3776   10.5017 C.3   145  UNL145      0.0198
   1155 C           9.6957   -0.4098   10.5017 C.3   145  UNL145     -0.0517
   1156 H          10.8356   -2.0147    9.6131 H     145  UNL145      0.0427
   1157 H          10.8356   -2.0147   11.3902 H     145  UNL145      0.0427
   1158 H           8.7488   -0.9591   10.5017 H     145  UNL145      0.0241
   1159 H           9.7130    0.2314   11.3891 H     145  UNL145      0.0241
   1160 H           9.7130    0.2314    9.6143 H     145  UNL145      0.0241
   1161 CL         12.4027    0.0541   22.4088 Cl    146  UNL146     -0.1257
   1162 C          10.8602   -0.8276   22.4088 C.3   146  UNL146      0.0198
   1163 C           9.6957    0.1402   22.4088 C.3   146  UNL146     -0.0517
   1164 H          10.8356   -1.4647   21.5202 H     146  UNL146      0.0427
   1165 H          10.8356   -1.4647   23.2973 H     146  UNL146      0.0427
   1166 H           8.7488   -0.4091   22.4088 H     146  UNL146      0.0241
   1167 H           9.7130    0.7814   23.2962 H     146  UNL146      0.0241
   1168 H           9.7130    0.7814   21.5214 H     146  UNL146      0.0241
   1169 CL         12.3664    2.7286    4.5361 Cl    147  UNL147     -0.1257
   1170 C          10.8239    1.8469    4.5361 C.3   147  UNL147      0.0198
   1171 C           9.6594    2.8147    4.5361 C.3   147  UNL147     -0.0517
   1172 H          10.7993    1.2098    3.6475 H     147  UNL147      0.0427
   1173 H          10.7993    1.2098    5.4246 H     147  UNL147      0.0427
   1174 H           8.7125    2.2654    4.5361 H     147  UNL147      0.0241
   1175 H           9.6767    3.4559    5.4235 H     147  UNL147      0.0241
   1176 H           9.6767    3.4559    3.6487 H     147  UNL147      0.0241
   1177 CL         11.3593   -0.1448    5.8599 Cl    148  UNL148     -0.1257
   1178 C          10.0749    0.6723    6.7761 C.3   148  UNL148      0.0198
   1179 C          10.4793    0.8362    8.2260 C.3   148  UNL148     -0.0517
   1180 H           9.8952    1.6456    6.3107 H     148  UNL148      0.0427
   1181 H           9.1655    0.0708    6.6922 H     148  UNL148      0.0427
   1182 H           9.6841    1.3401    8.7847 H     148  UNL148      0.0241
   1183 H          10.6604   -0.1344    8.6993 H     148  UNL148      0.0241
   1184 H          11.3892    1.4384    8.3182 H     148  UNL148      0.0241
   1185 CL         12.4027    3.3886   10.5017 Cl    149  UNL149     -0.1257
   1186 C          10.8602    2.5069   10.5017 C.3   149  UNL149      0.0198
   1187 C           9.6957    3.4747   10.5017 C.3   149  UNL149     -0.0517
   1188 H          10.8356    1.8698    9.6131 H     149  UNL149      0.0427
   1189 H          10.8356    1.8698   11.3902 H     149  UNL149      0.0427
   1190 H           8.7488    2.9254   10.5017 H     149  UNL149      0.0241
   1191 H           9.7130    4.1159   11.3891 H     149  UNL149      0.0241
   1192 H           9.7130    4.1159    9.6143 H     149  UNL149      0.0241
   1193 CL         12.4390   -1.1792   13.1636 Cl    150  UNL150     -0.1257
   1194 C          10.8965   -0.6515   13.8700 C.3   150  UNL150      0.0198
   1195 C           9.7320   -1.2307   13.0946 C.3   150  UNL150     -0.0517
   1196 H          10.8719   -0.9821   14.9122 H     150  UNL150      0.0427
   1197 H          10.8719    0.4416   13.8487 H     150  UNL150      0.0427
   1198 H           8.7851   -0.9020   13.5347 H     150  UNL150      0.0241
   1199 H           9.7493   -0.9035   12.0499 H     150  UNL150      0.0241
   1200 H           9.7493   -2.3254   13.1120 H     150  UNL150      0.0241
   1201 CL         12.3785    3.2786   16.4674 Cl    151  UNL151     -0.1257
   1202 C          10.8360    2.3969   16.4674 C.3   151  UNL151      0.0198
   1203 C           9.6715    3.3647   16.4674 C.3   151  UNL151     -0.0517
   1204 H          10.8114    1.7598   15.5788 H     151  UNL151      0.0427
   1205 H          10.8114    1.7598   17.3559 H     151  UNL151      0.0427
   1206 H           8.7246    2.8154   16.4674 H     151  UNL151      0.0241
   1207 H           9.6888    4.0059   17.3548 H     151  UNL151      0.0241
   1208 H           9.6888    4.0059   15.5800 H     151  UNL151      0.0241
   1209 CL         12.4390   -0.8020   17.2212 Cl    152  UNL152     -0.1257
   1210 C          10.8965   -1.2105   18.0025 C.3   152  UNL152      0.0198
   1211 C           9.7320   -0.7621   17.1449 C.3   152  UNL152     -0.0517
   1212 H          10.8719   -2.2932   18.1553 H     152  UNL152      0.0427
   1213 H          10.8719   -0.7184   18.9788 H     152  UNL152      0.0427
   1214 H           8.7851   -1.0166   17.6317 H     152  UNL152      0.0241
   1215 H           9.7493    0.3214   16.9879 H     152  UNL152      0.0241
   1216 H           9.7493   -1.2513   16.1655 H     152  UNL152      0.0241
   1217 CL         12.4027    3.1686   22.4088 Cl    153  UNL153     -0.1257
   1218 C          10.8602    2.2869   22.4088 C.3   153  UNL153      0.0198
   1219 C           9.6957    3.2547   22.4088 C.3   153  UNL153     -0.0517
   1220 H          10.8356    1.6498   21.5202 H     153  UNL153      0.0427
   1221 H          10.8356    1.6498   23.2973 H     153  UNL153      0.0427
   1222 H           8.7488    2.7054   22.4088 H     153  UNL153      0.0241
   1223 H           9.7130    3.8959   23.2962 H     153  UNL153      0.0241
   1224 H           9.7130    3.8959   21.5214 H     153  UNL153      0.0241
   1225 CL         12.4390   -1.1792   25.0707 Cl    154  UNL154     -0.1257
   1226 C          10.8965   -0.6515   25.7771 C.3   154  UNL154      0.0198
   1227 C           9.7320   -1.2307   25.0017 C.3   154  UNL154     -0.0517
   1228 H          10.8719   -0.9821   26.8193 H     154  UNL154      0.0427
   1229 H          10.8719    0.4416   25.7558 H     154  UNL154      0.0427
   1230 H           8.7851   -0.9020   25.4418 H     154  UNL154      0.0241
   1231 H           9.7493   -0.9035   23.9570 H     154  UNL154      0.0241
   1232 H           9.7493   -2.3254   25.0191 H     154  UNL154      0.0241
   1233 CL         12.4269    2.2807   28.6420 Cl    155  UNL155     -0.1257
   1234 C          10.8844    2.7838   27.9179 C.3   155  UNL155      0.0198
   1235 C           9.7199    2.2316   28.7127 C.3   155  UNL155     -0.0517
   1236 H          10.8598    3.8771   27.9017 H     155  UNL155      0.0427
   1237 H          10.8598    2.4176   26.8877 H     155  UNL155      0.0427
   1238 H           8.7730    2.5450   28.2616 H     155  UNL155      0.0241
   1239 H           9.7372    1.1370   28.7329 H     155  UNL155      0.0241
   1240 H           9.7372    2.5945   29.7456 H     155  UNL155      0.0241
   1241 CL         12.3906   -0.9077   29.1170 Cl    156  UNL156     -0.1257
   1242 C          10.8481   -1.0537   29.9865 C.3   156  UNL156      0.0198
   1243 C           9.6836   -0.8935   29.0320 C.3   156  UNL156     -0.0517
   1244 H          10.8235   -2.0356   30.4676 H     156  UNL156      0.0427
   1245 H          10.8235   -0.2830   30.7619 H     156  UNL156      0.0427
   1246 H           8.7367   -0.9844   29.5738 H     156  UNL156      0.0241
   1247 H           9.7009    0.0878   28.5466 H     156  UNL156      0.0241
   1248 H           9.7009   -1.6625   28.2528 H     156  UNL156      0.0241
   1249 CL          8.5698   -0.8208   35.7422 Cl    157  UNL157     -0.1257
   1250 C           8.6241    0.0406   34.1893 C.3   157  UNL157      0.0198
   1251 C           8.0829    1.4464   34.3429 C.3   157  UNL157     -0.0517
   1252 H           9.6637    0.0597   33.8501 H     157  UNL157      0.0427
   1253 H           8.0306   -0.5272   33.4674 H     157  UNL157      0.0427
   1254 H           8.1192    1.9715   33.3831 H     157  UNL157      0.0241
   1255 H           7.0418    1.4356   34.6818 H     157  UNL157      0.0241
   1256 H           8.6728    2.0217   35.0640 H     157  UNL157      0.0241
   1257 CL          9.3708    1.0677    3.1864 Cl    158  UNL158     -0.1257
   1258 C           9.5875    1.8848    1.6237 C.3   158  UNL158      0.0198
   1259 C          11.0598    2.0487    1.3102 C.3   158  UNL158     -0.0517
   1260 H           9.0918    1.2832    0.8566 H     158  UNL158      0.0427
   1261 H           9.0918    2.8580    1.6801 H     158  UNL158      0.0427
   1262 H          11.1864    2.5526    0.3467 H     158  UNL158      0.0241
   1263 H          11.5631    2.6509    2.0738 H     158  UNL158      0.0241
   1264 H          11.5631    1.0781    1.2514 H     158  UNL158      0.0241
   1265 CL         12.4148    5.0926    4.1729 Cl    159  UNL159     -0.1257
   1266 C          10.8723    4.6841    4.9542 C.3   159  UNL159      0.0198
   1267 C           9.7078    5.1325    4.0966 C.3   159  UNL159     -0.0517
   1268 H          10.8477    3.6014    5.1070 H     159  UNL159      0.0427
   1269 H          10.8477    5.1762    5.9305 H     159  UNL159      0.0427
   1270 H           8.7609    4.8780    4.5833 H     159  UNL159      0.0241
   1271 H           9.7251    6.2160    3.9396 H     159  UNL159      0.0241
   1272 H           9.7251    4.6432    3.1172 H     159  UNL159      0.0241
   1273 CL         12.4027    4.3932    7.4947 Cl    160  UNL160     -0.1257
   1274 C          10.8602    3.5115    7.4947 C.3   160  UNL160      0.0198
   1275 C           9.6957    4.4793    7.4947 C.3   160  UNL160     -0.0517
   1276 H          10.8356    2.8744    6.6061 H     160  UNL160      0.0427
   1277 H          10.8356    2.8744    8.3832 H     160  UNL160      0.0427
   1278 H           8.7488    3.9300    7.4947 H     160  UNL160      0.0241
   1279 H           9.7130    5.1205    8.3821 H     160  UNL160      0.0241
   1280 H           9.7130    5.1205    6.6073 H     160  UNL160      0.0241
   1281 CL         12.3785    5.9826   10.7681 Cl    161  UNL161     -0.1257
   1282 C          10.8360    5.5740    9.9868 C.3   161  UNL161      0.0198
   1283 C           9.6715    6.0225   10.8444 C.3   161  UNL161     -0.0517
   1284 H          10.8114    6.0663    9.0104 H     161  UNL161      0.0427
   1285 H          10.8114    4.4915    9.8339 H     161  UNL161      0.0427
   1286 H           8.7246    5.7680   10.3576 H     161  UNL161      0.0241
   1287 H           9.6888    5.5332   11.8238 H     161  UNL161      0.0241
   1288 H           9.6888    7.1060   11.0014 H     161  UNL161      0.0241
   1289 CL         12.2648    4.2711   14.2009 Cl    162  UNL162     -0.1257
   1290 C          10.9488    3.9630   13.0477 C.3   162  UNL162      0.0198
   1291 C           9.6047    4.0593   13.7381 C.3   162  UNL162     -0.0517
   1292 H          11.0258    4.6997   12.2431 H     162  UNL162      0.0427
   1293 H          11.0974    2.9655   12.6246 H     162  UNL162      0.0427
   1294 H           8.7986    3.8686   13.0225 H     162  UNL162      0.0241
   1295 H           9.5197    3.3240   14.5449 H     162  UNL162      0.0241
   1296 H           9.4482    5.0559   14.1639 H     162  UNL162      0.0241
   1297 CL         12.3906    6.0632   16.4553 Cl    163  UNL163     -0.1257
   1298 C          10.8481    5.1815   16.4553 C.3   163  UNL163      0.0198
   1299 C           9.6836    6.1493   16.4553 C.3   163  UNL163     -0.0517
   1300 H          10.8235    4.5444   15.5667 H     163  UNL163      0.0427
   1301 H          10.8235    4.5444   17.3438 H     163  UNL163      0.0427
   1302 H           8.7367    5.6000   16.4553 H     163  UNL163      0.0241
   1303 H           9.7009    6.7905   17.3427 H     163  UNL163      0.0241
   1304 H           9.7009    6.7905   15.5679 H     163  UNL163      0.0241
   1305 CL         11.0230    3.6911   19.4260 Cl    164  UNL164     -0.1257
   1306 C          11.0896    1.9157   19.4260 C.3   164  UNL164      0.0198
   1307 C           9.6924    1.3322   19.4260 C.3   164  UNL164     -0.0517
   1308 H          11.6428    1.5986   18.5374 H     164  UNL164      0.0427
   1309 H          11.6428    1.5986   20.3145 H     164  UNL164      0.0427
   1310 H           9.7404    0.2385   19.4260 H     164  UNL164      0.0241
   1311 H           9.1322    1.6446   20.3134 H     164  UNL164      0.0241
   1312 H           9.1322    1.6446   18.5386 H     164  UNL164      0.0241
   1313 CL         12.3906    6.0926   22.7236 Cl    165  UNL165     -0.1257
   1314 C          10.8481    5.6840   21.9423 C.3   165  UNL165      0.0198
   1315 C           9.6836    6.1325   22.7999 C.3   165  UNL165     -0.0517
   1316 H          10.8235    6.1763   20.9659 H     165  UNL165      0.0427
   1317 H          10.8235    4.6015   21.7894 H     165  UNL165      0.0427
   1318 H           8.7367    5.8780   22.3131 H     165  UNL165      0.0241
   1319 H           9.7009    5.6432   23.7793 H     165  UNL165      0.0241
   1320 H           9.7009    7.2160   22.9569 H     165  UNL165      0.0241
   1321 CL         11.0528    2.0367   25.3795 Cl    166  UNL166     -0.1257
   1322 C           9.9279    3.4119   25.3795 C.3   166  UNL166      0.0198
   1323 C          10.6895    4.7206   25.3795 C.3   166  UNL166     -0.0517
   1324 H           9.2955    3.3307   24.4909 H     166  UNL166      0.0427
   1325 H           9.2955    3.3307   26.2680 H     166  UNL166      0.0427
   1326 H           9.9910    5.5635   25.3795 H     166  UNL166      0.0241
   1327 H          11.3247    4.8097   26.2669 H     166  UNL166      0.0241
   1328 H          11.3247    4.8097   24.4921 H     166  UNL166      0.0241
   1329 CL         12.3664    6.2832   28.3624 Cl    167  UNL167     -0.1257
   1330 C          10.8239    5.4015   28.3624 C.3   167  UNL167      0.0198
   1331 C           9.6594    6.3693   28.3624 C.3   167  UNL167     -0.0517
   1332 H          10.7993    4.7644   27.4738 H     167  UNL167      0.0427
   1333 H          10.7993    4.7644   29.2509 H     167  UNL167      0.0427
   1334 H           8.7125    5.8200   28.3624 H     167  UNL167      0.0241
   1335 H           9.6767    7.0105   29.2498 H     167  UNL167      0.0241
   1336 H           9.6767    7.0105   27.4750 H     167  UNL167      0.0241
   1337 CL          8.8016    4.6650   30.0767 Cl    168  UNL168     -0.1257
   1338 C          10.4311    4.3369   30.7042 C.3   168  UNL168      0.0198
   1339 C          10.3527    3.6362   32.0442 C.3   168  UNL168     -0.0517
   1340 H          10.9562    3.7170   29.9720 H     168  UNL168      0.0427
   1341 H          10.9562    5.2918   30.7955 H     168  UNL168      0.0427
   1342 H          11.3594    3.4370   32.4251 H     168  UNL168      0.0241
   1343 H           9.8286    4.2512   32.7831 H     168  UNL168      0.0241
   1344 H           9.8286    2.6784   31.9607 H     168  UNL168      0.0241
   1345 CL         12.3664    5.0632   34.3764 Cl    169  UNL169     -0.1257
   1346 C          10.8239    4.1815   34.3764 C.3   169  UNL169      0.0198
   1347 C           9.6594    5.1493   34.3764 C.3   169  UNL169     -0.0517
   1348 H          10.7993    3.5444   33.4878 H     169  UNL169      0.0427
   1349 H          10.7993    3.5444   35.2649 H     169  UNL169      0.0427
   1350 H           8.7125    4.6000   34.3764 H     169  UNL169      0.0241
   1351 H           9.6767    5.7905   35.2638 H     169  UNL169      0.0241
   1352 H           9.6767    5.7905   33.4890 H     169  UNL169      0.0241
   1353 CL         12.3664    5.4272    1.1779 Cl    170  UNL170     -0.1257
   1354 C          10.8239    5.0186    1.9593 C.3   170  UNL170      0.0198
   1355 C           9.6594    5.4671    1.1016 C.3   170  UNL170     -0.0517
   1356 H          10.7993    3.9360    2.1121 H     170  UNL170      0.0427
   1357 H          10.7993    5.5108    2.9356 H     170  UNL170      0.0427
   1358 H           8.7125    5.2125    1.5884 H     170  UNL170      0.0241
   1359 H           9.6767    6.5506    0.9446 H     170  UNL170      0.0241
   1360 H           9.6767    4.9778    0.1222 H     170  UNL170      0.0241
   1361 CL         12.3664    9.3978    2.4019 Cl    171  UNL171     -0.1257
   1362 C          10.8239    8.5161    2.4019 C.3   171  UNL171      0.0198
   1363 C           9.6594    9.4839    2.4019 C.3   171  UNL171     -0.0517
   1364 H          10.7993    7.8790    1.5133 H     171  UNL171      0.0427
   1365 H          10.7993    7.8790    3.2904 H     171  UNL171      0.0427
   1366 H           8.7125    8.9346    2.4019 H     171  UNL171      0.0241
   1367 H           9.6767   10.1251    3.2893 H     171  UNL171      0.0241
   1368 H           9.6767   10.1251    1.5145 H     171  UNL171      0.0241
   1369 CL         12.4269    7.7157    5.3847 Cl    172  UNL172     -0.1257
   1370 C          10.8844    6.8340    5.3847 C.3   172  UNL172      0.0198
   1371 C           9.7199    7.8018    5.3847 C.3   172  UNL172     -0.0517
   1372 H          10.8598    6.1969    4.4961 H     172  UNL172      0.0427
   1373 H          10.8598    6.1969    6.2732 H     172  UNL172      0.0427
   1374 H           8.7730    7.2525    5.3847 H     172  UNL172      0.0241
   1375 H           9.7372    8.4430    6.2721 H     172  UNL172      0.0241
   1376 H           9.7372    8.4430    4.4973 H     172  UNL172      0.0241
   1377 CL         12.4027    9.2799   10.7692 Cl    173  UNL173     -0.1257
   1378 C          10.8602    9.7830   10.0451 C.3   173  UNL173      0.0198
   1379 C           9.6957    9.2308   10.8399 C.3   173  UNL173     -0.0517
   1380 H          10.8356   10.8762   10.0289 H     173  UNL173      0.0427
   1381 H          10.8356    9.4168    9.0150 H     173  UNL173      0.0427
   1382 H           8.7488    9.5442   10.3888 H     173  UNL173      0.0241
   1383 H           9.7130    8.1361   10.8602 H     173  UNL173      0.0241
   1384 H           9.7130    9.5937   11.8728 H     173  UNL173      0.0241
   1385 CL          9.1346    8.9941   13.9194 Cl    174  UNL174     -0.1257
   1386 C          10.0577    7.4904   14.1282 C.3   174  UNL174      0.0198
   1387 C          10.7546    7.1121   12.8382 C.3   174  UNL174     -0.0517
   1388 H          10.7843    7.6490   14.9300 H     174  UNL174      0.0427
   1389 H           9.3606    6.7065   14.4372 H     174  UNL174      0.0427
   1390 H          11.3213    6.1853   12.9735 H     174  UNL174      0.0241
   1391 H          10.0333    6.9509   12.0304 H     174  UNL174      0.0241
   1392 H          11.4552    7.8921   12.5225 H     174  UNL174      0.0241
   1393 CL         12.4390    7.7641   16.4553 Cl    175  UNL175     -0.1257
   1394 C          10.8965    6.8824   16.4553 C.3   175  UNL175      0.0198
   1395 C           9.7320    7.8502   16.4553 C.3   175  UNL175     -0.0517
   1396 H          10.8719    6.2453   15.5667 H     175  UNL175      0.0427
   1397 H          10.8719    6.2453   17.3438 H     175  UNL175      0.0427
   1398 H           8.7851    7.3009   16.4553 H     175  UNL175      0.0241
   1399 H           9.7493    8.4914   17.3427 H     175  UNL175      0.0241
   1400 H           9.7493    8.4914   15.5679 H     175  UNL175      0.0241
   1401 CL          9.2971    3.6259   19.4260 Cl    176  UNL176     -0.1257
   1402 C           9.5138    5.3894   19.4260 C.3   176  UNL176      0.0198
   1403 C          10.9861    5.7431   19.4260 C.3   176  UNL176     -0.0517
   1404 H           9.0181    5.7903   18.5374 H     176  UNL176      0.0427
   1405 H           9.0181    5.7903   20.3145 H     176  UNL176      0.0427
   1406 H          11.1127    6.8305   19.4260 H     176  UNL176      0.0241
   1407 H          11.4894    5.3455   20.3134 H     176  UNL176      0.0241
   1408 H          11.4894    5.3455   18.5386 H     176  UNL176      0.0241
   1409 CL         12.4148    9.2072   22.1303 Cl    177  UNL177     -0.1257
   1410 C          10.8723    8.7986   22.9116 C.3   177  UNL177      0.0198
   1411 C           9.7078    9.2471   22.0540 C.3   177  UNL177     -0.0517
   1412 H          10.8477    7.7160   23.0645 H     177  UNL177      0.0427
   1413 H          10.8477    9.2908   23.8879 H     177  UNL177      0.0427
   1414 H           8.7609    8.9925   22.5408 H     177  UNL177      0.0241
   1415 H           9.7251   10.3306   21.8970 H     177  UNL177      0.0241
   1416 H           9.7251    8.7578   21.0746 H     177  UNL177      0.0241
   1417 CL         12.4390    7.7641   25.3916 Cl    178  UNL178     -0.1257
   1418 C          10.8965    6.8824   25.3916 C.3   178  UNL178      0.0198
   1419 C           9.7320    7.8502   25.3916 C.3   178  UNL178     -0.0517
   1420 H          10.8719    6.2453   24.5030 H     178  UNL178      0.0427
   1421 H          10.8719    6.2453   26.2801 H     178  UNL178      0.0427
   1422 H           8.7851    7.3009   25.3916 H     178  UNL178      0.0241
   1423 H           9.7493    8.4914   26.2790 H     178  UNL178      0.0241
   1424 H           9.7493    8.4914   24.5042 H     178  UNL178      0.0241
   1425 CL         12.3664    9.0599   28.6541 Cl    179  UNL179     -0.1257
   1426 C          10.8239    9.5630   27.9300 C.3   179  UNL179      0.0198
   1427 C           9.6594    9.0108   28.7248 C.3   179  UNL179     -0.0517
   1428 H          10.7993   10.6562   27.9138 H     179  UNL179      0.0427
   1429 H          10.7993    9.1968   26.8998 H     179  UNL179      0.0427
   1430 H           8.7125    9.3242   28.2737 H     179  UNL179      0.0241
   1431 H           9.6767    7.9161   28.7450 H     179  UNL179      0.0241
   1432 H           9.6767    9.3737   29.7577 H     179  UNL179      0.0241
   1433 CL         12.1707    7.7399   30.4815 Cl    180  UNL180     -0.1257
   1434 C          10.7844    6.8582   31.1580 C.3   180  UNL180      0.0198
   1435 C           9.7379    7.8260   31.6687 C.3   180  UNL180     -0.0517
   1436 H          10.3726    6.2211   30.3702 H     180  UNL180      0.0427
   1437 H          11.1520    6.2211   31.9673 H     180  UNL180      0.0427
   1438 H           8.8869    7.2767   32.0840 H     180  UNL180      0.0241
   1439 H          10.1426    8.4672   32.4586 H     180  UNL180      0.0241
   1440 H           9.3642    8.4672   30.8636 H     180  UNL180      0.0241
   1441 CL         12.4390    7.7157   35.3401 Cl    181  UNL181     -0.1257
   1442 C          10.8965    6.8340   35.3401 C.3   181  UNL181      0.0198
   1443 C           9.7320    7.8018   35.3401 C.3   181  UNL181     -0.0517
   1444 H          10.8719    6.1969   34.4515 H     181  UNL181      0.0427
   1445 H          10.8719    6.1969   36.2286 H     181  UNL181      0.0427
   1446 H           8.7851    7.2525   35.3401 H     181  UNL181      0.0241
   1447 H           9.7493    8.4430   36.2275 H     181  UNL181      0.0241
   1448 H           9.7493    8.4430   34.4527 H     181  UNL181      0.0241
   1449 CL         12.4148   11.0987   -0.1410 Cl    182  UNL182     -0.1257
   1450 C          10.8723   10.2170   -0.1410 C.3   182  UNL182      0.0198
   1451 C           9.7078   11.1848   -0.1410 C.3   182  UNL182     -0.0517
   1452 H          10.8477    9.5799   -1.0296 H     182  UNL182      0.0427
   1453 H          10.8477    9.5799    0.7475 H     182  UNL182      0.0427
   1454 H           8.7609   10.6355   -0.1410 H     182  UNL182      0.0241
   1455 H           9.7251   11.8260    0.7464 H     182  UNL182      0.0241
   1456 H           9.7251   11.8260   -1.0284 H     182  UNL182      0.0241
   1457 CL         12.4269   11.7324    2.8419 Cl    183  UNL183     -0.1257
   1458 C          10.8844   10.8507    2.8419 C.3   183  UNL183      0.0198
   1459 C           9.7199   11.8185    2.8419 C.3   183  UNL183     -0.0517
   1460 H          10.8598   10.2136    1.9533 H     183  UNL183      0.0427
   1461 H          10.8598   10.2136    3.7304 H     183  UNL183      0.0427
   1462 H           8.7730   11.2692    2.8419 H     183  UNL183      0.0241
   1463 H           9.7372   12.4597    3.7293 H     183  UNL183      0.0241
   1464 H           9.7372   12.4597    1.9545 H     183  UNL183      0.0241
   1465 CL         11.0230   12.7024    5.6047 Cl    184  UNL184     -0.1257
   1466 C          11.0896   10.9269    5.6047 C.3   184  UNL184      0.0198
   1467 C           9.6924   10.3434    5.6047 C.3   184  UNL184     -0.0517
   1468 H          11.6428   10.6099    4.7161 H     184  UNL184      0.0427
   1469 H          11.6428   10.6099    6.4932 H     184  UNL184      0.0427
   1470 H           9.7404    9.2498    5.6047 H     184  UNL184      0.0241
   1471 H           9.1322   10.6559    6.4921 H     184  UNL184      0.0241
   1472 H           9.1322   10.6559    4.7173 H     184  UNL184      0.0241
   1473 CL         12.4027   13.0624   10.4775 Cl    185  UNL185     -0.1257
   1474 C          10.8602   12.1807   10.4775 C.3   185  UNL185      0.0198
   1475 C           9.6957   13.1485   10.4775 C.3   185  UNL185     -0.0517
   1476 H          10.8356   11.5436    9.5889 H     185  UNL185      0.0427
   1477 H          10.8356   11.5436   11.3660 H     185  UNL185      0.0427
   1478 H           8.7488   12.5992   10.4775 H     185  UNL185      0.0241
   1479 H           9.7130   13.7897   11.3649 H     185  UNL185      0.0241
   1480 H           9.7130   13.7897    9.5901 H     185  UNL185      0.0241
   1481 CL         12.4027   11.0624   13.4603 Cl    186  UNL186     -0.1257
   1482 C          10.8602   10.1807   13.4603 C.3   186  UNL186      0.0198
   1483 C           9.6957   11.1485   13.4603 C.3   186  UNL186     -0.0517
   1484 H          10.8356    9.5436   12.5717 H     186  UNL186      0.0427
   1485 H          10.8356    9.5436   14.3488 H     186  UNL186      0.0427
   1486 H           8.7488   10.5992   13.4603 H     186  UNL186      0.0241
   1487 H           9.7130   11.7897   14.3477 H     186  UNL186      0.0241
   1488 H           9.7130   11.7897   12.5729 H     186  UNL186      0.0241
   1489 CL         10.7327   10.4583   16.1223 Cl    187  UNL187     -0.1257
   1490 C           9.1902   10.9859   16.8286 C.3   187  UNL187      0.0198
   1491 C           8.0257   10.4067   16.0533 C.3   187  UNL187     -0.0517
   1492 H           9.1656   10.6553   17.8708 H     187  UNL187      0.0427
   1493 H           9.1656   12.0790   16.8073 H     187  UNL187      0.0427
   1494 H           7.0788   10.7355   16.4933 H     187  UNL187      0.0241
   1495 H           8.0430   10.7339   15.0085 H     187  UNL187      0.0241
   1496 H           8.0430    9.3121   16.0706 H     187  UNL187      0.0241
   1497 CL         10.5127   10.4704   19.1414 Cl    188  UNL188     -0.1257
   1498 C           8.9702   10.9980   19.8478 C.3   188  UNL188      0.0198
   1499 C           7.8057   10.4188   19.0724 C.3   188  UNL188     -0.0517
   1500 H           8.9456   10.6674   20.8900 H     188  UNL188      0.0427
   1501 H           8.9456   12.0911   19.8264 H     188  UNL188      0.0427
   1502 H           6.8588   10.7476   19.5125 H     188  UNL188      0.0241
   1503 H           7.8230   10.7460   18.0276 H     188  UNL188      0.0241
   1504 H           7.8230    9.3242   19.0898 H     188  UNL188      0.0241
   1505 CL         12.4027   12.7617   22.6873 Cl    189  UNL189     -0.1257
   1506 C          10.8602   12.3532   21.9060 C.3   189  UNL189      0.0198
   1507 C           9.6957   12.8016   22.7636 C.3   189  UNL189     -0.0517
   1508 H          10.8356   12.8454   20.9296 H     189  UNL189      0.0427
   1509 H          10.8356   11.2706   21.7531 H     189  UNL189      0.0427
   1510 H           8.7488   12.5471   22.2768 H     189  UNL189      0.0241
   1511 H           9.7130   12.3124   23.7430 H     189  UNL189      0.0241
   1512 H           9.7130   13.8851   22.9206 H     189  UNL189      0.0241
   1513 CL         12.3664   12.7324   25.4279 Cl    190  UNL190     -0.1257
   1514 C          10.8239   11.8507   25.4279 C.3   190  UNL190      0.0198
   1515 C           9.6594   12.8185   25.4279 C.3   190  UNL190     -0.0517
   1516 H          10.7993   11.2136   24.5393 H     190  UNL190      0.0427
   1517 H          10.7993   11.2136   26.3164 H     190  UNL190      0.0427
   1518 H           8.7125   12.2692   25.4279 H     190  UNL190      0.0241
   1519 H           9.6767   13.4597   26.3153 H     190  UNL190      0.0241
   1520 H           9.6767   13.4597   24.5405 H     190  UNL190      0.0241
   1521 CL         12.4027   13.3924   28.4108 Cl    191  UNL191     -0.1257
   1522 C          10.8602   12.5107   28.4108 C.3   191  UNL191      0.0198
   1523 C           9.6957   13.4785   28.4108 C.3   191  UNL191     -0.0517
   1524 H          10.8356   11.8736   27.5222 H     191  UNL191      0.0427
   1525 H          10.8356   11.8736   29.2993 H     191  UNL191      0.0427
   1526 H           8.7488   12.9292   28.4108 H     191  UNL191      0.0241
   1527 H           9.7130   14.1197   29.2982 H     191  UNL191      0.0241
   1528 H           9.7130   14.1197   27.5234 H     191  UNL191      0.0241
   1529 CL         12.4027   11.0624   31.3573 Cl    192  UNL192     -0.1257
   1530 C          10.8602   10.1807   31.3573 C.3   192  UNL192      0.0198
   1531 C           9.6957   11.1485   31.3573 C.3   192  UNL192     -0.0517
   1532 H          10.8356    9.5436   30.4687 H     192  UNL192      0.0427
   1533 H          10.8356    9.5436   32.2458 H     192  UNL192      0.0427
   1534 H           8.7488   10.5992   31.3573 H     192  UNL192      0.0241
   1535 H           9.7130   11.7897   32.2447 H     192  UNL192      0.0241
   1536 H           9.7130   11.7897   30.4699 H     192  UNL192      0.0241
   1537 CL         12.4027   12.7324   34.3401 Cl    193  UNL193     -0.1257
   1538 C          10.8602   11.8507   34.3401 C.3   193  UNL193      0.0198
   1539 C           9.6957   12.8185   34.3401 C.3   193  UNL193     -0.0517
   1540 H          10.8356   11.2136   33.4515 H     193  UNL193      0.0427
   1541 H          10.8356   11.2136   35.2286 H     193  UNL193      0.0427
   1542 H           8.7488   12.2692   34.3401 H     193  UNL193      0.0241
   1543 H           9.7130   13.4597   35.2275 H     193  UNL193      0.0241
   1544 H           9.7130   13.4597   33.4527 H     193  UNL193      0.0241
   1545 CL         12.4390   14.4332    1.5290 Cl    194  UNL194     -0.1257
   1546 C          10.8965   13.5515    1.5290 C.3   194  UNL194      0.0198
   1547 C           9.7320   14.5193    1.5290 C.3   194  UNL194     -0.0517
   1548 H          10.8719   12.9144    0.6404 H     194  UNL194      0.0427
   1549 H          10.8719   12.9144    2.4175 H     194  UNL194      0.0427
   1550 H           8.7851   13.9700    1.5290 H     194  UNL194      0.0241
   1551 H           9.7493   15.1605    2.4164 H     194  UNL194      0.0241
   1552 H           9.7493   15.1605    0.6416 H     194  UNL194      0.0241
   1553 CL         12.3664   16.0669    4.4877 Cl    195  UNL195     -0.1257
   1554 C          10.8239   15.1852    4.4877 C.3   195  UNL195      0.0198
   1555 C           9.6594   16.1530    4.4877 C.3   195  UNL195     -0.0517
   1556 H          10.7993   14.5481    3.5991 H     195  UNL195      0.0427
   1557 H          10.7993   14.5481    5.3762 H     195  UNL195      0.0427
   1558 H           8.7125   15.6037    4.4877 H     195  UNL195      0.0241
   1559 H           9.6767   16.7942    5.3751 H     195  UNL195      0.0241
   1560 H           9.6767   16.7942    3.6003 H     195  UNL195      0.0241
   1561 CL          9.4313   12.1851    7.4947 Cl    196  UNL196     -0.1257
   1562 C           9.6480   13.9485    7.4947 C.3   196  UNL196      0.0198
   1563 C          11.1203   14.3023    7.4947 C.3   196  UNL196     -0.0517
   1564 H           9.1523   14.3495    6.6061 H     196  UNL196      0.0427
   1565 H           9.1523   14.3495    8.3832 H     196  UNL196      0.0427
   1566 H          11.2469   15.3896    7.4947 H     196  UNL196      0.0241
   1567 H          11.6236   13.9047    8.3821 H     196  UNL196      0.0241
   1568 H          11.6236   13.9047    6.6073 H     196  UNL196      0.0241
   1569 CL         12.3664   16.0669   10.4775 Cl    197  UNL197     -0.1257
   1570 C          10.8239   15.1852   10.4775 C.3   197  UNL197      0.0198
   1571 C           9.6594   16.1530   10.4775 C.3   197  UNL197     -0.0517
   1572 H          10.7993   14.5481    9.5889 H     197  UNL197      0.0427
   1573 H          10.7993   14.5481   11.3660 H     197  UNL197      0.0427
   1574 H           8.7125   15.6037   10.4775 H     197  UNL197      0.0241
   1575 H           9.6767   16.7942   11.3649 H     197  UNL197      0.0241
   1576 H           9.6767   16.7942    9.5901 H     197  UNL197      0.0241
   1577 CL         12.4390   14.4211   13.4603 Cl    198  UNL198     -0.1257
   1578 C          10.8965   13.5394   13.4603 C.3   198  UNL198      0.0198
   1579 C           9.7320   14.5072   13.4603 C.3   198  UNL198     -0.0517
   1580 H          10.8719   12.9023   12.5717 H     198  UNL198      0.0427
   1581 H          10.8719   12.9023   14.3488 H     198  UNL198      0.0427
   1582 H           8.7851   13.9579   13.4603 H     198  UNL198      0.0241
   1583 H           9.7493   15.1484   14.3477 H     198  UNL198      0.0241
   1584 H           9.7493   15.1484   12.5729 H     198  UNL198      0.0241
   1585 CL         12.3664   16.0669   16.4069 Cl    199  UNL199     -0.1257
   1586 C          10.8239   15.1852   16.4069 C.3   199  UNL199      0.0198
   1587 C           9.6594   16.1530   16.4069 C.3   199  UNL199     -0.0517
   1588 H          10.7993   14.5481   15.5183 H     199  UNL199      0.0427
   1589 H          10.7993   14.5481   17.2954 H     199  UNL199      0.0427
   1590 H           8.7125   15.6037   16.4069 H     199  UNL199      0.0241
   1591 H           9.6767   16.7942   17.2943 H     199  UNL199      0.0241
   1592 H           9.6767   16.7942   15.5195 H     199  UNL199      0.0241
   1593 CL         12.3664   15.8763   19.7529 Cl    200  UNL200     -0.1257
   1594 C          10.8239   15.4678   18.9715 C.3   200  UNL200      0.0198
   1595 C           9.6594   15.9162   19.8292 C.3   200  UNL200     -0.0517
   1596 H          10.7993   15.9600   17.9952 H     200  UNL200      0.0427
   1597 H          10.7993   14.3852   18.8187 H     200  UNL200      0.0427
   1598 H           8.7125   15.6617   19.3424 H     200  UNL200      0.0241
   1599 H           9.6767   15.4269   20.8086 H     200  UNL200      0.0241
   1600 H           9.6767   16.9997   19.9862 H     200  UNL200      0.0241
   1601 CL         12.3664   16.0669   22.4088 Cl    201  UNL201     -0.1257
   1602 C          10.8239   15.1852   22.4088 C.3   201  UNL201      0.0198
   1603 C           9.6594   16.1530   22.4088 C.3   201  UNL201     -0.0517
   1604 H          10.7993   14.5481   21.5202 H     201  UNL201      0.0427
   1605 H          10.7993   14.5481   23.2973 H     201  UNL201      0.0427
   1606 H           8.7125   15.6037   22.4088 H     201  UNL201      0.0241
   1607 H           9.6767   16.7942   23.2962 H     201  UNL201      0.0241
   1608 H           9.6767   16.7942   21.5214 H     201  UNL201      0.0241
   1609 CL         12.4390   14.4332   25.3553 Cl    202  UNL202     -0.1257
   1610 C          10.8965   13.5515   25.3553 C.3   202  UNL202      0.0198
   1611 C           9.7320   14.5193   25.3553 C.3   202  UNL202     -0.0517
   1612 H          10.8719   12.9144   24.4667 H     202  UNL202      0.0427
   1613 H          10.8719   12.9144   26.2438 H     202  UNL202      0.0427
   1614 H           8.7851   13.9700   25.3553 H     202  UNL202      0.0241
   1615 H           9.7493   15.1605   26.2427 H     202  UNL202      0.0241
   1616 H           9.7493   15.1605   24.4679 H     202  UNL202      0.0241
   1617 CL         12.3664   16.0669   28.3745 Cl    203  UNL203     -0.1257
   1618 C          10.8239   15.1852   28.3745 C.3   203  UNL203      0.0198
   1619 C           9.6594   16.1530   28.3745 C.3   203  UNL203     -0.0517
   1620 H          10.7993   14.5481   27.4859 H     203  UNL203      0.0427
   1621 H          10.7993   14.5481   29.2630 H     203  UNL203      0.0427
   1622 H           8.7125   15.6037   28.3745 H     203  UNL203      0.0241
   1623 H           9.6767   16.7942   29.2619 H     203  UNL203      0.0241
   1624 H           9.6767   16.7942   27.4871 H     203  UNL203      0.0241
   1625 CL         12.4027   14.4211   31.3573 Cl    204  UNL204     -0.1257
   1626 C          10.8602   13.5394   31.3573 C.3   204  UNL204      0.0198
   1627 C           9.6957   14.5072   31.3573 C.3   204  UNL204     -0.0517
   1628 H          10.8356   12.9023   30.4687 H     204  UNL204      0.0427
   1629 H          10.8356   12.9023   32.2458 H     204  UNL204      0.0427
   1630 H           8.7488   13.9579   31.3573 H     204  UNL204      0.0241
   1631 H           9.7130   15.1484   32.2447 H     204  UNL204      0.0241
   1632 H           9.7130   15.1484   30.4699 H     204  UNL204      0.0241
   1633 CL         12.3664   15.8763   34.6428 Cl    205  UNL205     -0.1257
   1634 C          10.8239   15.4678   33.8615 C.3   205  UNL205      0.0198
   1635 C           9.6594   15.9162   34.7191 C.3   205  UNL205     -0.0517
   1636 H          10.7993   15.9600   32.8851 H     205  UNL205      0.0427
   1637 H          10.7993   14.3852   33.7086 H     205  UNL205      0.0427
   1638 H           8.7125   15.6617   34.2323 H     205  UNL205      0.0241
   1639 H           9.6767   15.4269   35.6985 H     205  UNL205      0.0241
   1640 H           9.6767   16.9997   34.8761 H     205  UNL205      0.0241
   1641 CL         12.4390   18.2109    1.2021 Cl    206  UNL206     -0.1257
   1642 C          10.8965   17.8023    1.9835 C.3   206  UNL206      0.0198
   1643 C           9.7320   18.2508    1.1258 C.3   206  UNL206     -0.0517
   1644 H          10.8719   16.7197    2.1363 H     206  UNL206      0.0427
   1645 H          10.8719   18.2945    2.9598 H     206  UNL206      0.0427
   1646 H           8.7851   17.9963    1.6126 H     206  UNL206      0.0241
   1647 H           9.7493   19.3343    0.9688 H     206  UNL206      0.0241
   1648 H           9.7493   17.7615    0.1464 H     206  UNL206      0.0241
   1649 CL         12.4390   18.4015    4.4756 Cl    207  UNL207     -0.1257
   1650 C          10.8965   17.5198    4.4756 C.3   207  UNL207      0.0198
   1651 C           9.7320   18.4876    4.4756 C.3   207  UNL207     -0.0517
   1652 H          10.8719   16.8827    3.5870 H     207  UNL207      0.0427
   1653 H          10.8719   16.8827    5.3641 H     207  UNL207      0.0427
   1654 H           8.7851   17.9383    4.4756 H     207  UNL207      0.0241
   1655 H           9.7493   19.1288    5.3630 H     207  UNL207      0.0241
   1656 H           9.7493   19.1288    3.5882 H     207  UNL207      0.0241
   1657 CL         12.4390   18.2109    7.1799 Cl    208  UNL208     -0.1257
   1658 C          10.8965   17.8023    7.9612 C.3   208  UNL208      0.0198
   1659 C           9.7320   18.2508    7.1036 C.3   208  UNL208     -0.0517
   1660 H          10.8719   16.7197    8.1140 H     208  UNL208      0.0427
   1661 H          10.8719   18.2945    8.9375 H     208  UNL208      0.0427
   1662 H           8.7851   17.9963    7.5904 H     208  UNL208      0.0241
   1663 H           9.7493   19.3343    6.9466 H     208  UNL208      0.0241
   1664 H           9.7493   17.7615    6.1242 H     208  UNL208      0.0241
   1665 CL         12.4390   18.7315   10.5017 Cl    209  UNL209     -0.1257
   1666 C          10.8965   17.8498   10.5017 C.3   209  UNL209      0.0198
   1667 C           9.7320   18.8176   10.5017 C.3   209  UNL209     -0.0517
   1668 H          10.8719   17.2127    9.6131 H     209  UNL209      0.0427
   1669 H          10.8719   17.2127   11.3902 H     209  UNL209      0.0427
   1670 H           8.7851   18.2683   10.5017 H     209  UNL209      0.0241
   1671 H           9.7493   19.4588   11.3891 H     209  UNL209      0.0241
   1672 H           9.7493   19.4588    9.6143 H     209  UNL209      0.0241
   1673 CL         12.4027   17.7315   13.4603 Cl    210  UNL210     -0.1257
   1674 C          10.8602   16.8498   13.4603 C.3   210  UNL210      0.0198
   1675 C           9.6957   17.8176   13.4603 C.3   210  UNL210     -0.0517
   1676 H          10.8356   16.2127   12.5717 H     210  UNL210      0.0427
   1677 H          10.8356   16.2127   14.3488 H     210  UNL210      0.0427
   1678 H           8.7488   17.2683   13.4603 H     210  UNL210      0.0241
   1679 H           9.7130   18.4588   14.3477 H     210  UNL210      0.0241
   1680 H           9.7130   18.4588   12.5729 H     210  UNL210      0.0241
   1681 CL         12.4390   18.7315   16.4069 Cl    211  UNL211     -0.1257
   1682 C          10.8965   17.8498   16.4069 C.3   211  UNL211      0.0198
   1683 C           9.7320   18.8176   16.4069 C.3   211  UNL211     -0.0517
   1684 H          10.8719   17.2127   15.5183 H     211  UNL211      0.0427
   1685 H          10.8719   17.2127   17.2954 H     211  UNL211      0.0427
   1686 H           8.7851   18.2683   16.4069 H     211  UNL211      0.0241
   1687 H           9.7493   19.4588   17.2943 H     211  UNL211      0.0241
   1688 H           9.7493   19.4588   15.5195 H     211  UNL211      0.0241
   1689 CL         12.4390   18.7315   19.3897 Cl    212  UNL212     -0.1257
   1690 C          10.8965   17.8498   19.3897 C.3   212  UNL212      0.0198
   1691 C           9.7320   18.8176   19.3897 C.3   212  UNL212     -0.0517
   1692 H          10.8719   17.2127   18.5011 H     212  UNL212      0.0427
   1693 H          10.8719   17.2127   20.2782 H     212  UNL212      0.0427
   1694 H           8.7851   18.2683   19.3897 H     212  UNL212      0.0241
   1695 H           9.7493   19.4588   20.2771 H     212  UNL212      0.0241
   1696 H           9.7493   19.4588   18.5023 H     212  UNL212      0.0241
   1697 CL         12.4390   18.7315   22.4330 Cl    213  UNL213     -0.1257
   1698 C          10.8965   17.8498   22.4330 C.3   213  UNL213      0.0198
   1699 C           9.7320   18.8176   22.4330 C.3   213  UNL213     -0.0517
   1700 H          10.8719   17.2127   21.5444 H     213  UNL213      0.0427
   1701 H          10.8719   17.2127   23.3215 H     213  UNL213      0.0427
   1702 H           8.7851   18.2683   22.4330 H     213  UNL213      0.0241
   1703 H           9.7493   19.4588   23.3204 H     213  UNL213      0.0241
   1704 H           9.7493   19.4588   21.5456 H     213  UNL213      0.0241
   1705 CL         12.4390   18.2109   25.0647 Cl    214  UNL214     -0.1257
   1706 C          10.8965   17.8023   25.8461 C.3   214  UNL214      0.0198
   1707 C           9.7320   18.2508   24.9884 C.3   214  UNL214     -0.0517
   1708 H          10.8719   16.7197   25.9989 H     214  UNL214      0.0427
   1709 H          10.8719   18.2945   26.8224 H     214  UNL214      0.0427
   1710 H           8.7851   17.9963   25.4752 H     214  UNL214      0.0241
   1711 H           9.7493   19.3343   24.8314 H     214  UNL214      0.0241
   1712 H           9.7493   17.7615   24.0090 H     214  UNL214      0.0241
   1713 CL         12.4390   18.6215   28.3382 Cl    215  UNL215     -0.1257
   1714 C          10.8965   17.7398   28.3382 C.3   215  UNL215      0.0198
   1715 C           9.7320   18.7076   28.3382 C.3   215  UNL215     -0.0517
   1716 H          10.8719   17.1027   27.4496 H     215  UNL215      0.0427
   1717 H          10.8719   17.1027   29.2267 H     215  UNL215      0.0427
   1718 H           8.7851   18.1583   28.3382 H     215  UNL215      0.0241
   1719 H           9.7493   19.3488   29.2256 H     215  UNL215      0.0241
   1720 H           9.7493   19.3488   27.4508 H     215  UNL215      0.0241
   1721 CL         11.0588   18.2109   33.3217 Cl    216  UNL216     -0.1257
   1722 C          11.0365   17.8023   31.5927 C.3   216  UNL216      0.0198
   1723 C           9.7369   18.2508   30.9582 C.3   216  UNL216     -0.0517
   1724 H          11.8903   18.2946   31.1185 H     216  UNL216      0.0427
   1725 H          11.1606   16.7198   31.5001 H     216  UNL216      0.0427
   1726 H           9.7295   17.9963   29.8935 H     216  UNL216      0.0241
   1727 H           8.8770   17.7615   31.4273 H     216  UNL216      0.0241
   1728 H           9.6058   19.3343   31.0463 H     216  UNL216      0.0241
   1729 CL         12.4390   18.7315   35.3401 Cl    217  UNL217     -0.1257
   1730 C          10.8965   17.8498   35.3401 C.3   217  UNL217      0.0198
   1731 C           9.7320   18.8176   35.3401 C.3   217  UNL217     -0.0517
   1732 H          10.8719   17.2127   34.4515 H     217  UNL217      0.0427
   1733 H          10.8719   17.2127   36.2286 H     217  UNL217      0.0427
   1734 H           8.7851   18.2683   35.3401 H     217  UNL217      0.0241
   1735 H           9.7493   19.4588   36.2275 H     217  UNL217      0.0241
   1736 H           9.7493   19.4588   34.4527 H     217  UNL217      0.0241
   1737 CL         17.2686   -0.1659    1.4927 Cl    218  UNL218     -0.1257
   1738 C          15.7261   -1.0476    1.4927 C.3   218  UNL218      0.0198
   1739 C          14.5616   -0.0798    1.4927 C.3   218  UNL218     -0.0517
   1740 H          15.7015   -1.6847    0.6041 H     218  UNL218      0.0427
   1741 H          15.7015   -1.6847    2.3812 H     218  UNL218      0.0427
   1742 H          13.6147   -0.6291    1.4927 H     218  UNL218      0.0241
   1743 H          14.5789    0.5614    2.3801 H     218  UNL218      0.0241
   1744 H          14.5789    0.5614    0.6053 H     218  UNL218      0.0241
   1745 CL         17.3049   -0.1659   25.3795 Cl    219  UNL219     -0.1257
   1746 C          15.7624   -1.0476   25.3795 C.3   219  UNL219      0.0198
   1747 C          14.5979   -0.0798   25.3795 C.3   219  UNL219     -0.0517
   1748 H          15.7378   -1.6847   24.4909 H     219  UNL219      0.0427
   1749 H          15.7378   -1.6847   26.2680 H     219  UNL219      0.0427
   1750 H          13.6510   -0.6291   25.3795 H     219  UNL219      0.0241
   1751 H          14.6152    0.5614   26.2669 H     219  UNL219      0.0241
   1752 H          14.6152    0.5614   24.4921 H     219  UNL219      0.0241
   1753 CL         17.2444    2.3907    1.8207 Cl    220  UNL220     -0.1257
   1754 C          15.7019    2.8938    1.0967 C.3   220  UNL220      0.0198
   1755 C          14.5374    2.3416    1.8915 C.3   220  UNL220     -0.0517
   1756 H          15.6773    3.9871    1.0804 H     220  UNL220      0.0427
   1757 H          15.6773    2.5276    0.0665 H     220  UNL220      0.0427
   1758 H          13.5905    2.6550    1.4403 H     220  UNL220      0.0241
   1759 H          14.5547    1.2470    1.9117 H     220  UNL220      0.0241
   1760 H          14.5547    2.7045    2.9244 H     220  UNL220      0.0241
   1761 CL         17.1344    0.3527    4.7039 Cl    221  UNL221     -0.1257
   1762 C          15.5919   -0.4397    4.3173 C.3   221  UNL221      0.0198
   1763 C          14.4274    0.4300    4.7417 C.3   221  UNL221     -0.0517
   1764 H          15.5673   -0.6226    3.2393 H     221  UNL221      0.0427
   1765 H          15.5673   -1.4020    4.8364 H     221  UNL221      0.0427
   1766 H          13.4805   -0.0636    4.5008 H     221  UNL221      0.0241
   1767 H          14.4447    0.6171    5.8204 H     221  UNL221      0.0241
   1768 H          14.4447    1.3955    4.2254 H     221  UNL221      0.0241
   1769 CL         17.2565    2.2807    7.2029 Cl    222  UNL222     -0.1257
   1770 C          15.7140    2.7838    7.9270 C.3   222  UNL222      0.0198
   1771 C          14.5495    2.2316    7.1322 C.3   222  UNL222     -0.0517
   1772 H          15.6894    2.4176    8.9573 H     222  UNL222      0.0427
   1773 H          15.6894    3.8770    7.9433 H     222  UNL222      0.0427
   1774 H          13.6026    2.5450    7.5833 H     222  UNL222      0.0241
   1775 H          14.5668    2.5945    6.0993 H     222  UNL222      0.0241
   1776 H          14.5668    1.1370    7.1120 H     222  UNL222      0.0241
   1777 CL         17.3049    3.1686   13.4361 Cl    223  UNL223     -0.1257
   1778 C          15.7624    2.2869   13.4361 C.3   223  UNL223      0.0198
   1779 C          14.5979    3.2547   13.4361 C.3   223  UNL223     -0.0517
   1780 H          15.7378    1.6498   12.5475 H     223  UNL223      0.0427
   1781 H          15.7378    1.6498   14.3246 H     223  UNL223      0.0427
   1782 H          13.6510    2.7054   13.4361 H     223  UNL223      0.0241
   1783 H          14.6152    3.8959   14.3235 H     223  UNL223      0.0241
   1784 H          14.6152    3.8959   12.5487 H     223  UNL223      0.0241
   1785 CL         17.3170   -0.6169   14.6157 Cl    224  UNL224     -0.1257
   1786 C          15.7745   -1.4848   14.4605 C.3   224  UNL224      0.0198
   1787 C          14.6100   -0.5322   14.6309 C.3   224  UNL224     -0.0517
   1788 H          15.7499   -1.9556   13.4736 H     224  UNL224      0.0427
   1789 H          15.7499   -2.2684   15.2229 H     224  UNL224      0.0427
   1790 H          13.6631   -1.0729   14.5342 H     224  UNL224      0.0241
   1791 H          14.6273   -0.0572   15.6173 H     224  UNL224      0.0241
   1792 H          14.6273    0.2553   13.8702 H     224  UNL224      0.0241
   1793 CL         17.2807    3.0586   25.3916 Cl    225  UNL225     -0.1257
   1794 C          15.7382    2.1769   25.3916 C.3   225  UNL225      0.0198
   1795 C          14.5737    3.1447   25.3916 C.3   225  UNL225     -0.0517
   1796 H          15.7136    1.5398   24.5030 H     225  UNL225      0.0427
   1797 H          15.7136    1.5398   26.2801 H     225  UNL225      0.0427
   1798 H          13.6268    2.5954   25.3916 H     225  UNL225      0.0241
   1799 H          14.5910    3.7859   26.2790 H     225  UNL225      0.0241
   1800 H          14.5910    3.7859   24.5042 H     225  UNL225      0.0241
   1801 CL         17.2565    2.8386   31.3573 Cl    226  UNL226     -0.1257
   1802 C          15.7140    1.9569   31.3573 C.3   226  UNL226      0.0198
   1803 C          14.5495    2.9247   31.3573 C.3   226  UNL226     -0.0517
   1804 H          15.6894    1.3198   30.4687 H     226  UNL226      0.0427
   1805 H          15.6894    1.3198   32.2458 H     226  UNL226      0.0427
   1806 H          13.6026    2.3754   31.3573 H     226  UNL226      0.0241
   1807 H          14.5668    3.5659   32.2447 H     226  UNL226      0.0241
   1808 H          14.5668    3.5659   30.4699 H     226  UNL226      0.0241
   1809 CL         15.5007    1.0586   35.3401 Cl    227  UNL227     -0.1257
   1810 C          13.9582    0.1769   35.3401 C.3   227  UNL227      0.0198
   1811 C          12.7937    1.1447   35.3401 C.3   227  UNL227     -0.0517
   1812 H          13.9336   -0.4602   34.4515 H     227  UNL227      0.0427
   1813 H          13.9336   -0.4602   36.2286 H     227  UNL227      0.0427
   1814 H          11.8468    0.5954   35.3401 H     227  UNL227      0.0241
   1815 H          12.8110    1.7859   36.2275 H     227  UNL227      0.0241
   1816 H          12.8110    1.7859   34.4527 H     227  UNL227      0.0241
   1817 CL         17.3170    6.2026    1.2142 Cl    228  UNL228     -0.1257
   1818 C          15.7745    5.7941    1.9956 C.3   228  UNL228      0.0198
   1819 C          14.6100    6.2425    1.1379 C.3   228  UNL228     -0.0517
   1820 H          15.7499    4.7114    2.1484 H     228  UNL228      0.0427
   1821 H          15.7499    6.2862    2.9719 H     228  UNL228      0.0427
   1822 H          13.6631    5.9880    1.6247 H     228  UNL228      0.0241
   1823 H          14.6273    7.3260    0.9809 H     228  UNL228      0.0241
   1824 H          14.6273    5.7532    0.1585 H     228  UNL228      0.0241
   1825 CL         14.5155    5.4816    5.8403 Cl    229  UNL229     -0.1257
   1826 C          15.2706    4.7735    4.3963 C.3   229  UNL229      0.0198
   1827 C          15.2342    3.2613    4.4658 C.3   229  UNL229     -0.0517
   1828 H          14.7265    5.1350    3.5191 H     229  UNL229      0.0427
   1829 H          16.3013    5.1350    4.3426 H     229  UNL229      0.0427
   1830 H          15.7007    2.8314    3.5736 H     229  UNL229      0.0241
   1831 H          15.7778    2.8915    5.3414 H     229  UNL229      0.0241
   1832 H          14.2050    2.8915    4.5190 H     229  UNL229      0.0241
   1833 CL         17.2928    6.1732    7.5189 Cl    230  UNL230     -0.1257
   1834 C          15.7503    5.2915    7.5189 C.3   230  UNL230      0.0198
   1835 C          14.5858    6.2593    7.5189 C.3   230  UNL230     -0.0517
   1836 H          15.7257    4.6544    6.6303 H     230  UNL230      0.0427
   1837 H          15.7257    4.6544    8.4074 H     230  UNL230      0.0427
   1838 H          13.6389    5.7100    7.5189 H     230  UNL230      0.0241
   1839 H          14.6031    6.9005    8.4063 H     230  UNL230      0.0241
   1840 H          14.6031    6.9005    6.6315 H     230  UNL230      0.0241
   1841 CL         16.9049    2.9272   10.4775 Cl    231  UNL231     -0.1257
   1842 C          15.9053    1.4584   10.4775 C.3   231  UNL231      0.0198
   1843 C          14.4343    1.8174   10.4775 C.3   231  UNL231     -0.0517
   1844 H          16.1626    0.8750    9.5889 H     231  UNL231      0.0427
   1845 H          16.1626    0.8750   11.3660 H     231  UNL231      0.0427
   1846 H          13.8243    0.9085   10.4775 H     231  UNL231      0.0241
   1847 H          14.1687    2.4012   11.3649 H     231  UNL231      0.0241
   1848 H          14.1687    2.4012    9.5901 H     231  UNL231      0.0241
   1849 CL         14.7378    4.8927   12.0623 Cl    232  UNL232     -0.1257
   1850 C          15.3360    6.4206   12.7438 C.3   232  UNL232      0.0198
   1851 C          15.1057    6.4607   14.2398 C.3   232  UNL232     -0.0517
   1852 H          16.4021    6.4988   12.5128 H     232  UNL232      0.0427
   1853 H          14.8092    7.2406   12.2477 H     232  UNL232      0.0427
   1854 H          15.4762    7.4041   14.6533 H     232  UNL232      0.0241
   1855 H          14.0400    6.3837   14.4791 H     232  UNL232      0.0241
   1856 H          15.6309    5.6428   14.7439 H     232  UNL232      0.0241
   1857 CL         15.8010    4.6425   14.5295 Cl    233  UNL233     -0.1257
   1858 C          14.7362    4.1640   15.8689 C.3   233  UNL233      0.0198
   1859 C          15.5459    3.8910   17.1190 C.3   233  UNL233     -0.0517
   1860 H          14.0218    4.9745   16.0383 H     233  UNL233      0.0427
   1861 H          14.1859    3.2709   15.5601 H     233  UNL233      0.0427
   1862 H          14.8843    3.5969   17.9401 H     233  UNL233      0.0241
   1863 H          16.2633    3.0798   16.9575 H     233  UNL233      0.0241
   1864 H          16.0995    4.7813   17.4351 H     233  UNL233      0.0241
   1865 CL         15.8525    4.1311   19.4381 Cl    234  UNL234     -0.1257
   1866 C          15.9191    2.3557   19.4381 C.3   234  UNL234      0.0198
   1867 C          14.5219    1.7722   19.4381 C.3   234  UNL234     -0.0517
   1868 H          16.4723    2.0386   18.5495 H     234  UNL234      0.0427
   1869 H          16.4723    2.0386   20.3266 H     234  UNL234      0.0427
   1870 H          14.5699    0.6785   19.4381 H     234  UNL234      0.0241
   1871 H          13.9617    2.0846   20.3255 H     234  UNL234      0.0241
   1872 H          13.9617    2.0846   18.5507 H     234  UNL234      0.0241
   1873 CL         14.3213    2.1571   22.4088 Cl    235  UNL235     -0.1257
   1874 C          14.5381    3.9206   22.4088 C.3   235  UNL235      0.0198
   1875 C          16.0103    4.2743   22.4088 C.3   235  UNL235     -0.0517
   1876 H          14.0424    4.3216   21.5202 H     235  UNL235      0.0427
   1877 H          14.0424    4.3216   23.2973 H     235  UNL235      0.0427
   1878 H          16.1369    5.3617   22.4088 H     235  UNL235      0.0241
   1879 H          16.5137    3.8767   23.2962 H     235  UNL235      0.0241
   1880 H          16.5137    3.8767   21.5214 H     235  UNL235      0.0241
   1881 CL         17.2444    6.5032   25.3553 Cl    236  UNL236     -0.1257
   1882 C          15.7019    5.6215   25.3553 C.3   236  UNL236      0.0198
   1883 C          14.5374    6.5893   25.3553 C.3   236  UNL236     -0.0517
   1884 H          15.6773    4.9844   24.4667 H     236  UNL236      0.0427
   1885 H          15.6773    4.9844   26.2438 H     236  UNL236      0.0427
   1886 H          13.5905    6.0400   25.3553 H     236  UNL236      0.0241
   1887 H          14.5547    7.2305   26.2427 H     236  UNL236      0.0241
   1888 H          14.5547    7.2305   24.4679 H     236  UNL236      0.0241
   1889 CL         14.5155    5.4574   29.6908 Cl    237  UNL237     -0.1257
   1890 C          15.2706    4.7493   28.2467 C.3   237  UNL237      0.0198
   1891 C          15.2342    3.2371   28.3163 C.3   237  UNL237     -0.0517
   1892 H          14.7265    5.1108   27.3696 H     237  UNL237      0.0427
   1893 H          16.3013    5.1108   28.1931 H     237  UNL237      0.0427
   1894 H          15.7007    2.8072   27.4241 H     237  UNL237      0.0241
   1895 H          15.7778    2.8673   29.1919 H     237  UNL237      0.0241
   1896 H          14.2050    2.8673   28.3695 H     237  UNL237      0.0241
   1897 CL         17.2928    6.2832   31.3936 Cl    238  UNL238     -0.1257
   1898 C          15.7503    5.4015   31.3936 C.3   238  UNL238      0.0198
   1899 C          14.5858    6.3693   31.3936 C.3   238  UNL238     -0.0517
   1900 H          15.7257    4.7644   30.5050 H     238  UNL238      0.0427
   1901 H          15.7257    4.7644   32.2821 H     238  UNL238      0.0427
   1902 H          13.6389    5.8200   31.3936 H     238  UNL238      0.0241
   1903 H          14.6031    7.0105   32.2810 H     238  UNL238      0.0241
   1904 H          14.6031    7.0105   30.5062 H     238  UNL238      0.0241
   1905 CL         15.9009    5.9848   35.1201 Cl    239  UNL239     -0.1257
   1906 C          15.9675    4.2094   35.1201 C.3   239  UNL239      0.0198
   1907 C          14.5703    3.6259   35.1201 C.3   239  UNL239     -0.0517
   1908 H          16.5207    3.8923   34.2315 H     239  UNL239      0.0427
   1909 H          16.5207    3.8923   36.0086 H     239  UNL239      0.0427
   1910 H          14.6183    2.5322   35.1201 H     239  UNL239      0.0241
   1911 H          14.0101    3.9383   36.0075 H     239  UNL239      0.0241
   1912 H          14.0101    3.9383   34.2327 H     239  UNL239      0.0241
   1913 CL         17.2807    9.3978    1.4927 Cl    240  UNL240     -0.1257
   1914 C          15.7382    8.5161    1.4927 C.3   240  UNL240      0.0198
   1915 C          14.5737    9.4839    1.4927 C.3   240  UNL240     -0.0517
   1916 H          15.7136    7.8790    0.6041 H     240  UNL240      0.0427
   1917 H          15.7136    7.8790    2.3812 H     240  UNL240      0.0427
   1918 H          13.6268    8.9346    1.4927 H     240  UNL240      0.0241
   1919 H          14.5910   10.1251    2.3801 H     240  UNL240      0.0241
   1920 H          14.5910   10.1251    0.6053 H     240  UNL240      0.0241
   1921 CL         17.2444    9.8672    4.8508 Cl    241  UNL241     -0.1257
   1922 C          15.7019    9.4586    4.0695 C.3   241  UNL241      0.0198
   1923 C          14.5374    9.9071    4.9271 C.3   241  UNL241     -0.0517
   1924 H          15.6773    9.9508    3.0932 H     241  UNL241      0.0427
   1925 H          15.6773    8.3760    3.9166 H     241  UNL241      0.0427
   1926 H          13.5905    9.6525    4.4404 H     241  UNL241      0.0241
   1927 H          14.5547    9.4178    5.9065 H     241  UNL241      0.0241
   1928 H          14.5547   10.9906    5.0842 H     241  UNL241      0.0241
   1929 CL         17.2686    9.9478    7.4947 Cl    242  UNL242     -0.1257
   1930 C          15.7261    9.0661    7.4947 C.3   242  UNL242      0.0198
   1931 C          14.5616   10.0339    7.4947 C.3   242  UNL242     -0.0517
   1932 H          15.7015    8.4290    6.6061 H     242  UNL242      0.0427
   1933 H          15.7015    8.4290    8.3832 H     242  UNL242      0.0427
   1934 H          13.6147    9.4846    7.4947 H     242  UNL242      0.0241
   1935 H          14.5789   10.6751    8.3821 H     242  UNL242      0.0241
   1936 H          14.5789   10.6751    6.6073 H     242  UNL242      0.0241
   1937 CL         15.9009    7.0257   10.4412 Cl    243  UNL243     -0.1257
   1938 C          15.9675    5.2502   10.4412 C.3   243  UNL243      0.0198
   1939 C          14.5703    4.6667   10.4412 C.3   243  UNL243     -0.0517
   1940 H          16.5207    4.9332    9.5526 H     243  UNL243      0.0427
   1941 H          16.5207    4.9332   11.3297 H     243  UNL243      0.0427
   1942 H          14.6183    3.5731   10.4412 H     243  UNL243      0.0241
   1943 H          14.0101    4.9792   11.3286 H     243  UNL243      0.0241
   1944 H          14.0101    4.9792    9.5538 H     243  UNL243      0.0241
   1945 CL         17.2928    9.6472   13.7630 Cl    244  UNL244     -0.1257
   1946 C          15.7503    9.2386   12.9817 C.3   244  UNL244      0.0198
   1947 C          14.5858    9.6871   13.8393 C.3   244  UNL244     -0.0517
   1948 H          15.7257    9.7308   12.0054 H     244  UNL244      0.0427
   1949 H          15.7257    8.1560   12.8288 H     244  UNL244      0.0427
   1950 H          13.6389    9.4325   13.3525 H     244  UNL244      0.0241
   1951 H          14.6031    9.1978   14.8187 H     244  UNL244      0.0241
   1952 H          14.6031   10.7706   13.9963 H     244  UNL244      0.0241
   1953 CL         17.2444   10.0578   16.4674 Cl    245  UNL245     -0.1257
   1954 C          15.7019    9.1761   16.4674 C.3   245  UNL245      0.0198
   1955 C          14.5374   10.1439   16.4674 C.3   245  UNL245     -0.0517
   1956 H          15.6773    8.5390   15.5788 H     245  UNL245      0.0427
   1957 H          15.6773    8.5390   17.3559 H     245  UNL245      0.0427
   1958 H          13.5905    9.5946   16.4674 H     245  UNL245      0.0241
   1959 H          14.5547   10.7851   17.3548 H     245  UNL245      0.0241
   1960 H          14.5547   10.7851   15.5800 H     245  UNL245      0.0241
   1961 CL         12.4542    5.6424   20.1471 Cl    246  UNL246     -0.1257
   1962 C          13.7103    6.8200   19.7086 C.3   246  UNL246      0.0198
   1963 C          13.0871    8.0598   19.1024 C.3   246  UNL246     -0.0517
   1964 H          14.2697    7.0699   20.6145 H     246  UNL246      0.0427
   1965 H          14.3897    6.3402   18.9986 H     246  UNL246      0.0427
   1966 H          13.8659    8.7809   18.8346 H     246  UNL246      0.0241
   1967 H          12.5256    7.8177   18.1941 H     246  UNL246      0.0241
   1968 H          12.4057    8.5465   19.8080 H     246  UNL246      0.0241
   1969 CL         17.2565    7.7641   22.4088 Cl    247  UNL247     -0.1257
   1970 C          15.7140    6.8824   22.4088 C.3   247  UNL247      0.0198
   1971 C          14.5495    7.8502   22.4088 C.3   247  UNL247     -0.0517
   1972 H          15.6894    6.2453   21.5202 H     247  UNL247      0.0427
   1973 H          15.6894    6.2453   23.2973 H     247  UNL247      0.0427
   1974 H          13.6026    7.3009   22.4088 H     247  UNL247      0.0241
   1975 H          14.5668    8.4914   23.2962 H     247  UNL247      0.0241
   1976 H          14.5668    8.4914   21.5214 H     247  UNL247      0.0241
   1977 CL         17.2444    9.3978   25.3916 Cl    248  UNL248     -0.1257
   1978 C          15.7019    8.5161   25.3916 C.3   248  UNL248      0.0198
   1979 C          14.5374    9.4839   25.3916 C.3   248  UNL248     -0.0517
   1980 H          15.6773    7.8790   24.5030 H     248  UNL248      0.0427
   1981 H          15.6773    7.8790   26.2801 H     248  UNL248      0.0427
   1982 H          13.5905    8.9346   25.3916 H     248  UNL248      0.0241
   1983 H          14.5547   10.1251   26.2790 H     248  UNL248      0.0241
   1984 H          14.5547   10.1251   24.5042 H     248  UNL248      0.0241
   1985 CL         17.3170    7.7641   28.3745 Cl    249  UNL249     -0.1257
   1986 C          15.7745    6.8824   28.3745 C.3   249  UNL249      0.0198
   1987 C          14.6100    7.8502   28.3745 C.3   249  UNL249     -0.0517
   1988 H          15.7499    6.2453   27.4859 H     249  UNL249      0.0427
   1989 H          15.7499    6.2453   29.2630 H     249  UNL249      0.0427
   1990 H          13.6631    7.3009   28.3745 H     249  UNL249      0.0241
   1991 H          14.6273    8.4914   29.2619 H     249  UNL249      0.0241
   1992 H          14.6273    8.4914   27.4871 H     249  UNL249      0.0241
   1993 CL         17.2686    9.6178   31.3573 Cl    250  UNL250     -0.1257
   1994 C          15.7261    8.7361   31.3573 C.3   250  UNL250      0.0198
   1995 C          14.5616    9.7039   31.3573 C.3   250  UNL250     -0.0517
   1996 H          15.7015    8.0990   30.4687 H     250  UNL250      0.0427
   1997 H          15.7015    8.0990   32.2458 H     250  UNL250      0.0427
   1998 H          13.6147    9.1546   31.3573 H     250  UNL250      0.0241
   1999 H          14.5789   10.3451   32.2447 H     250  UNL250      0.0241
   2000 H          14.5789   10.3451   30.4699 H     250  UNL250      0.0241
   2001 CL         14.2487    5.5522   35.3401 Cl    251  UNL251     -0.1257
   2002 C          14.4655    7.3157   35.3401 C.3   251  UNL251      0.0198
   2003 C          15.9377    7.6694   35.3401 C.3   251  UNL251     -0.0517
   2004 H          13.9698    7.7166   34.4515 H     251  UNL251      0.0427
   2005 H          13.9698    7.7166   36.2286 H     251  UNL251      0.0427
   2006 H          16.0643    8.7568   35.3401 H     251  UNL251      0.0241
   2007 H          16.4411    7.2718   36.2275 H     251  UNL251      0.0241
   2008 H          16.4411    7.2718   34.4527 H     251  UNL251      0.0241
   2009 CL         17.3049   12.9818    1.2021 Cl    252  UNL252     -0.1257
   2010 C          15.7624   12.5732    1.9835 C.3   252  UNL252      0.0198
   2011 C          14.5979   13.0217    1.1258 C.3   252  UNL252     -0.0517
   2012 H          15.7378   11.4905    2.1363 H     252  UNL252      0.0427
   2013 H          15.7378   13.0653    2.9598 H     252  UNL252      0.0427
   2014 H          13.6510   12.7671    1.6126 H     252  UNL252      0.0241
   2015 H          14.6152   14.1051    0.9688 H     252  UNL252      0.0241
   2016 H          14.6152   12.5324    0.1464 H     252  UNL252      0.0241
   2017 CL         17.2565   12.9818    4.1850 Cl    253  UNL253     -0.1257
   2018 C          15.7140   12.5732    4.9663 C.3   253  UNL253      0.0198
   2019 C          14.5495   13.0217    4.1087 C.3   253  UNL253     -0.0517
   2020 H          15.6894   11.4905    5.1191 H     253  UNL253      0.0427
   2021 H          15.6894   13.0653    5.9426 H     253  UNL253      0.0427
   2022 H          13.6026   12.7671    4.5954 H     253  UNL253      0.0241
   2023 H          14.5668   14.1051    3.9517 H     253  UNL253      0.0241
   2024 H          14.5668   12.5324    3.1293 H     253  UNL253      0.0241
   2025 CL         17.2565   13.0624    7.4947 Cl    254  UNL254     -0.1257
   2026 C          15.7140   12.1807    7.4947 C.3   254  UNL254      0.0198
   2027 C          14.5495   13.1485    7.4947 C.3   254  UNL254     -0.0517
   2028 H          15.6894   11.5436    6.6061 H     254  UNL254      0.0427
   2029 H          15.6894   11.5436    8.3832 H     254  UNL254      0.0427
   2030 H          13.6026   12.5992    7.4947 H     254  UNL254      0.0241
   2031 H          14.5668   13.7897    8.3821 H     254  UNL254      0.0241
   2032 H          14.5668   13.7897    6.6073 H     254  UNL254      0.0241
   2033 CL         14.2487    6.6305   10.4775 Cl    255  UNL255     -0.1257
   2034 C          14.4655    8.3939   10.4775 C.3   255  UNL255      0.0198
   2035 C          15.9377    8.7477   10.4775 C.3   255  UNL255     -0.0517
   2036 H          13.9698    8.7949    9.5889 H     255  UNL255      0.0427
   2037 H          13.9698    8.7949   11.3660 H     255  UNL255      0.0427
   2038 H          16.0643    9.8350   10.4775 H     255  UNL255      0.0241
   2039 H          16.4411    8.3501   11.3649 H     255  UNL255      0.0241
   2040 H          16.4411    8.3501    9.5901 H     255  UNL255      0.0241
   2041 CL         17.2565   12.7617   13.7751 Cl    256  UNL256     -0.1257
   2042 C          15.7140   12.3532   12.9938 C.3   256  UNL256      0.0198
   2043 C          14.5495   12.8016   13.8514 C.3   256  UNL256     -0.0517
   2044 H          15.6894   12.8454   12.0175 H     256  UNL256      0.0427
   2045 H          15.6894   11.2706   12.8409 H     256  UNL256      0.0427
   2046 H          13.6026   12.5471   13.3646 H     256  UNL256      0.0241
   2047 H          14.5668   12.3124   14.8308 H     256  UNL256      0.0241
   2048 H          14.5668   13.8851   14.0084 H     256  UNL256      0.0241
   2049 CL         17.2444   13.3924   16.4674 Cl    257  UNL257     -0.1257
   2050 C          15.7019   12.5107   16.4674 C.3   257  UNL257      0.0198
   2051 C          14.5374   13.4785   16.4674 C.3   257  UNL257     -0.0517
   2052 H          15.6773   11.8736   15.5788 H     257  UNL257      0.0427
   2053 H          15.6773   11.8736   17.3559 H     257  UNL257      0.0427
   2054 H          13.5905   12.9292   16.4674 H     257  UNL257      0.0241
   2055 H          14.5547   14.1197   17.3548 H     257  UNL257      0.0241
   2056 H          14.5547   14.1197   15.5800 H     257  UNL257      0.0241
   2057 CL         17.2444   11.7324   19.4018 Cl    258  UNL258     -0.1257
   2058 C          15.7019   10.8507   19.4018 C.3   258  UNL258      0.0198
   2059 C          14.5374   11.8185   19.4018 C.3   258  UNL258     -0.0517
   2060 H          15.6773   10.2136   18.5132 H     258  UNL258      0.0427
   2061 H          15.6773   10.2136   20.2903 H     258  UNL258      0.0427
   2062 H          13.5905   11.2692   19.4018 H     258  UNL258      0.0241
   2063 H          14.5547   12.4597   20.2892 H     258  UNL258      0.0241
   2064 H          14.5547   12.4597   18.5144 H     258  UNL258      0.0241
   2065 CL         17.3049   11.0624   22.4088 Cl    259  UNL259     -0.1257
   2066 C          15.7624   10.1807   22.4088 C.3   259  UNL259      0.0198
   2067 C          14.5979   11.1485   22.4088 C.3   259  UNL259     -0.0517
   2068 H          15.7378    9.5436   21.5202 H     259  UNL259      0.0427
   2069 H          15.7378    9.5436   23.2973 H     259  UNL259      0.0427
   2070 H          13.6510   10.5992   22.4088 H     259  UNL259      0.0241
   2071 H          14.6152   11.7897   23.2962 H     259  UNL259      0.0241
   2072 H          14.6152   11.7897   21.5214 H     259  UNL259      0.0241
   2073 CL         17.3049   11.7324   25.3916 Cl    260  UNL260     -0.1257
   2074 C          15.7624   10.8507   25.3916 C.3   260  UNL260      0.0198
   2075 C          14.5979   11.8185   25.3916 C.3   260  UNL260     -0.0517
   2076 H          15.7378   10.2136   24.5030 H     260  UNL260      0.0427
   2077 H          15.7378   10.2136   26.2801 H     260  UNL260      0.0427
   2078 H          13.6510   11.2692   25.3916 H     260  UNL260      0.0241
   2079 H          14.6152   12.4597   26.2790 H     260  UNL260      0.0241
   2080 H          14.6152   12.4597   24.5042 H     260  UNL260      0.0241
   2081 CL         17.2807   11.0624   28.3987 Cl    261  UNL261     -0.1257
   2082 C          15.7382   10.1807   28.3987 C.3   261  UNL261      0.0198
   2083 C          14.5737   11.1485   28.3987 C.3   261  UNL261     -0.0517
   2084 H          15.7136    9.5436   27.5101 H     261  UNL261      0.0427
   2085 H          15.7136    9.5436   29.2872 H     261  UNL261      0.0427
   2086 H          13.6268   10.5992   28.3987 H     261  UNL261      0.0241
   2087 H          14.5910   11.7897   29.2861 H     261  UNL261      0.0241
   2088 H          14.5910   11.7897   27.5113 H     261  UNL261      0.0241
   2089 CL         17.2807   12.8717   31.6721 Cl    262  UNL262     -0.1257
   2090 C          15.7382   12.4632   30.8907 C.3   262  UNL262      0.0198
   2091 C          14.5737   12.9116   31.7484 C.3   262  UNL262     -0.0517
   2092 H          15.7136   12.9554   29.9144 H     262  UNL262      0.0427
   2093 H          15.7136   11.3806   30.7379 H     262  UNL262      0.0427
   2094 H          13.6268   12.6571   31.2616 H     262  UNL262      0.0241
   2095 H          14.5910   12.4224   32.7278 H     262  UNL262      0.0241
   2096 H          14.5910   13.9951   31.9054 H     262  UNL262      0.0241
   2097 CL         17.2686   11.0866   35.3401 Cl    263  UNL263     -0.1257
   2098 C          15.7261   10.2049   35.3401 C.3   263  UNL263      0.0198
   2099 C          14.5616   11.1727   35.3401 C.3   263  UNL263     -0.0517
   2100 H          15.7015    9.5678   34.4515 H     263  UNL263      0.0427
   2101 H          15.7015    9.5678   36.2286 H     263  UNL263      0.0427
   2102 H          13.6147   10.6234   35.3401 H     263  UNL263      0.0241
   2103 H          14.5789   11.8139   36.2275 H     263  UNL263      0.0241
   2104 H          14.5789   11.8139   34.4527 H     263  UNL263      0.0241
   2105 CL         17.2444   15.8763    0.1738 Cl    264  UNL264     -0.1257
   2106 C          15.7019   15.4678   -0.6075 C.3   264  UNL264      0.0198
   2107 C          14.5374   15.9162    0.2501 C.3   264  UNL264     -0.0517
   2108 H          15.6773   15.9600   -1.5838 H     264  UNL264      0.0427
   2109 H          15.6773   14.3852   -0.7604 H     264  UNL264      0.0427
   2110 H          13.5905   15.6617   -0.2367 H     264  UNL264      0.0241
   2111 H          14.5547   15.4269    1.2295 H     264  UNL264      0.0241
   2112 H          14.5547   16.9997    0.4071 H     264  UNL264      0.0241
   2113 CL         17.2444   16.0669    2.8419 Cl    265  UNL265     -0.1257
   2114 C          15.7019   15.1852    2.8419 C.3   265  UNL265      0.0198
   2115 C          14.5374   16.1530    2.8419 C.3   265  UNL265     -0.0517
   2116 H          15.6773   14.5481    1.9533 H     265  UNL265      0.0427
   2117 H          15.6773   14.5481    3.7304 H     265  UNL265      0.0427
   2118 H          13.5905   15.6037    2.8419 H     265  UNL265      0.0241
   2119 H          14.5547   16.7942    3.7293 H     265  UNL265      0.0241
   2120 H          14.5547   16.7942    1.9545 H     265  UNL265      0.0241
   2121 CL         17.2444   15.8763    7.1799 Cl    266  UNL266     -0.1257
   2122 C          15.7019   15.4678    7.9612 C.3   266  UNL266      0.0198
   2123 C          14.5374   15.9162    7.1036 C.3   266  UNL266     -0.0517
   2124 H          15.6773   14.3851    8.1140 H     266  UNL266      0.0427
   2125 H          15.6773   15.9599    8.9375 H     266  UNL266      0.0427
   2126 H          13.5905   15.6617    7.5904 H     266  UNL266      0.0241
   2127 H          14.5547   16.9997    6.9466 H     266  UNL266      0.0241
   2128 H          14.5547   15.4270    6.1242 H     266  UNL266      0.0241
   2129 CL         17.2444   12.2869   10.4533 Cl    267  UNL267     -0.1257
   2130 C          15.7019   11.4052   10.4533 C.3   267  UNL267      0.0198
   2131 C          14.5374   12.3730   10.4533 C.3   267  UNL267     -0.0517
   2132 H          15.6773   10.7681    9.5647 H     267  UNL267      0.0427
   2133 H          15.6773   10.7681   11.3418 H     267  UNL267      0.0427
   2134 H          13.5905   11.8237   10.4533 H     267  UNL267      0.0241
   2135 H          14.5547   13.0142   11.3407 H     267  UNL267      0.0241
   2136 H          14.5547   13.0142    9.5659 H     267  UNL267      0.0241
   2137 CL         17.2444   16.0669   11.5703 Cl    268  UNL268     -0.1257
   2138 C          15.7019   15.1852   11.5703 C.3   268  UNL268      0.0198
   2139 C          14.5374   16.1530   11.5703 C.3   268  UNL268     -0.0517
   2140 H          15.6773   14.5481   10.6817 H     268  UNL268      0.0427
   2141 H          15.6773   14.5481   12.4588 H     268  UNL268      0.0427
   2142 H          13.5905   15.6037   11.5703 H     268  UNL268      0.0241
   2143 H          14.5547   16.7942   12.4577 H     268  UNL268      0.0241
   2144 H          14.5547   16.7942   10.6829 H     268  UNL268      0.0241
   2145 CL         17.2444   15.8763   14.7579 Cl    269  UNL269     -0.1257
   2146 C          15.7019   15.4678   13.9766 C.3   269  UNL269      0.0198
   2147 C          14.5374   15.9162   14.8342 C.3   269  UNL269     -0.0517
   2148 H          15.6773   15.9600   13.0003 H     269  UNL269      0.0427
   2149 H          15.6773   14.3852   13.8237 H     269  UNL269      0.0427
   2150 H          13.5905   15.6617   14.3475 H     269  UNL269      0.0241
   2151 H          14.5547   15.4269   15.8136 H     269  UNL269      0.0241
   2152 H          14.5547   16.9997   14.9913 H     269  UNL269      0.0241
   2153 CL         17.2444   16.0669   17.7560 Cl    270  UNL270     -0.1257
   2154 C          15.7019   15.1852   17.7560 C.3   270  UNL270      0.0198
   2155 C          14.5374   16.1530   17.7560 C.3   270  UNL270     -0.0517
   2156 H          15.6773   14.5481   16.8674 H     270  UNL270      0.0427
   2157 H          15.6773   14.5481   18.6445 H     270  UNL270      0.0427
   2158 H          13.5905   15.6037   17.7560 H     270  UNL270      0.0241
   2159 H          14.5547   16.7942   18.6434 H     270  UNL270      0.0241
   2160 H          14.5547   16.7942   16.8686 H     270  UNL270      0.0241
   2161 CL         17.3170   14.4332   20.7388 Cl    271  UNL271     -0.1257
   2162 C          15.7745   13.5515   20.7388 C.3   271  UNL271      0.0198
   2163 C          14.6100   14.5193   20.7388 C.3   271  UNL271     -0.0517
   2164 H          15.7499   12.9144   19.8502 H     271  UNL271      0.0427
   2165 H          15.7499   12.9144   21.6273 H     271  UNL271      0.0427
   2166 H          13.6631   13.9700   20.7388 H     271  UNL271      0.0241
   2167 H          14.6273   15.1605   21.6262 H     271  UNL271      0.0241
   2168 H          14.6273   15.1605   19.8514 H     271  UNL271      0.0241
   2169 CL         17.2444   16.0669   23.7216 Cl    272  UNL272     -0.1257
   2170 C          15.7019   15.1852   23.7216 C.3   272  UNL272      0.0198
   2171 C          14.5374   16.1530   23.7216 C.3   272  UNL272     -0.0517
   2172 H          15.6773   14.5481   22.8330 H     272  UNL272      0.0427
   2173 H          15.6773   14.5481   24.6101 H     272  UNL272      0.0427
   2174 H          13.5905   15.6037   23.7216 H     272  UNL272      0.0241
   2175 H          14.5547   16.7942   24.6090 H     272  UNL272      0.0241
   2176 H          14.5547   16.7942   22.8342 H     272  UNL272      0.0241
   2177 CL         17.3170   14.4332   26.7045 Cl    273  UNL273     -0.1257
   2178 C          15.7745   13.5515   26.7045 C.3   273  UNL273      0.0198
   2179 C          14.6100   14.5193   26.7045 C.3   273  UNL273     -0.0517
   2180 H          15.7499   12.9144   25.8159 H     273  UNL273      0.0427
   2181 H          15.7499   12.9144   27.5930 H     273  UNL273      0.0427
   2182 H          13.6631   13.9700   26.7045 H     273  UNL273      0.0241
   2183 H          14.6273   15.1605   27.5919 H     273  UNL273      0.0241
   2184 H          14.6273   15.1605   25.8171 H     273  UNL273      0.0241
   2185 CL         17.2444   16.0669   29.2473 Cl    274  UNL274     -0.1257
   2186 C          15.7019   15.1852   29.2473 C.3   274  UNL274      0.0198
   2187 C          14.5374   16.1530   29.2473 C.3   274  UNL274     -0.0517
   2188 H          15.6773   14.5481   28.3587 H     274  UNL274      0.0427
   2189 H          15.6773   14.5481   30.1358 H     274  UNL274      0.0427
   2190 H          13.5905   15.6037   29.2473 H     274  UNL274      0.0241
   2191 H          14.5547   16.7942   30.1347 H     274  UNL274      0.0241
   2192 H          14.5547   16.7942   28.3599 H     274  UNL274      0.0241
   2193 CL         17.2807   14.3969   35.3401 Cl    275  UNL275     -0.1257
   2194 C          15.7382   13.5152   35.3401 C.3   275  UNL275      0.0198
   2195 C          14.5737   14.4830   35.3401 C.3   275  UNL275     -0.0517
   2196 H          15.7136   12.8781   34.4515 H     275  UNL275      0.0427
   2197 H          15.7136   12.8781   36.2286 H     275  UNL275      0.0427
   2198 H          13.6268   13.9337   35.3401 H     275  UNL275      0.0241
   2199 H          14.5910   15.1242   36.2275 H     275  UNL275      0.0241
   2200 H          14.5910   15.1242   34.4527 H     275  UNL275      0.0241
   2201 CL         17.3170   18.7315   -0.2510 Cl    276  UNL276     -0.1257
   2202 C          15.7745   17.8498   -0.2510 C.3   276  UNL276      0.0198
   2203 C          14.6100   18.8176   -0.2510 C.3   276  UNL276     -0.0517
   2204 H          15.7499   17.2127   -1.1396 H     276  UNL276      0.0427
   2205 H          15.7499   17.2127    0.6375 H     276  UNL276      0.0427
   2206 H          13.6631   18.2683   -0.2510 H     276  UNL276      0.0241
   2207 H          14.6273   19.4588    0.6364 H     276  UNL276      0.0241
   2208 H          14.6273   19.4588   -1.1384 H     276  UNL276      0.0241
   2209 CL         17.3170   18.7315    2.7319 Cl    277  UNL277     -0.1257
   2210 C          15.7745   17.8498    2.7319 C.3   277  UNL277      0.0198
   2211 C          14.6100   18.8176    2.7319 C.3   277  UNL277     -0.0517
   2212 H          15.7499   17.2127    1.8433 H     277  UNL277      0.0427
   2213 H          15.7499   17.2127    3.6204 H     277  UNL277      0.0427
   2214 H          13.6631   18.2683    2.7319 H     277  UNL277      0.0241
   2215 H          14.6273   19.4588    3.6193 H     277  UNL277      0.0241
   2216 H          14.6273   19.4588    1.8445 H     277  UNL277      0.0241
   2217 CL         17.3170   17.9536    5.4229 Cl    278  UNL278     -0.1257
   2218 C          15.7745   18.4567    6.1470 C.3   278  UNL278      0.0198
   2219 C          14.6100   17.9045    5.3522 C.3   278  UNL278     -0.0517
   2220 H          15.7499   18.0905    7.1773 H     278  UNL278      0.0427
   2221 H          15.7499   19.5499    6.1633 H     278  UNL278      0.0427
   2222 H          13.6631   18.2179    5.8033 H     278  UNL278      0.0241
   2223 H          14.6273   18.2674    4.3193 H     278  UNL278      0.0241
   2224 H          14.6273   16.8099    5.3320 H     278  UNL278      0.0241
   2225 CL         17.2807   18.7315    8.4775 Cl    279  UNL279     -0.1257
   2226 C          15.7382   17.8498    8.4775 C.3   279  UNL279      0.0198
   2227 C          14.5737   18.8176    8.4775 C.3   279  UNL279     -0.0517
   2228 H          15.7136   17.2127    7.5889 H     279  UNL279      0.0427
   2229 H          15.7136   17.2127    9.3660 H     279  UNL279      0.0427
   2230 H          13.6268   18.2683    8.4775 H     279  UNL279      0.0241
   2231 H          14.5910   19.4588    9.3649 H     279  UNL279      0.0241
   2232 H          14.5910   19.4588    7.5901 H     279  UNL279      0.0241
   2233 CL         17.3170   18.7315   11.4603 Cl    280  UNL280     -0.1257
   2234 C          15.7745   17.8498   11.4603 C.3   280  UNL280      0.0198
   2235 C          14.6100   18.8176   11.4603 C.3   280  UNL280     -0.0517
   2236 H          15.7499   17.2127   10.5717 H     280  UNL280      0.0427
   2237 H          15.7499   17.2127   12.3488 H     280  UNL280      0.0427
   2238 H          13.6631   18.2683   11.4603 H     280  UNL280      0.0241
   2239 H          14.6273   19.4588   12.3477 H     280  UNL280      0.0241
   2240 H          14.6273   19.4588   10.5729 H     280  UNL280      0.0241
   2241 CL         17.3170   18.7315   14.4432 Cl    281  UNL281     -0.1257
   2242 C          15.7745   17.8498   14.4432 C.3   281  UNL281      0.0198
   2243 C          14.6100   18.8176   14.4432 C.3   281  UNL281     -0.0517
   2244 H          15.7499   17.2127   13.5546 H     281  UNL281      0.0427
   2245 H          15.7499   17.2127   15.3317 H     281  UNL281      0.0427
   2246 H          13.6631   18.2683   14.4432 H     281  UNL281      0.0241
   2247 H          14.6273   19.4588   15.3306 H     281  UNL281      0.0241
   2248 H          14.6273   19.4588   13.5558 H     281  UNL281      0.0241
   2249 CL         17.3170   18.7315   17.6460 Cl    282  UNL282     -0.1257
   2250 C          15.7745   17.8498   17.6460 C.3   282  UNL282      0.0198
   2251 C          14.6100   18.8176   17.6460 C.3   282  UNL282     -0.0517
   2252 H          15.7499   17.2127   16.7574 H     282  UNL282      0.0427
   2253 H          15.7499   17.2127   18.5345 H     282  UNL282      0.0427
   2254 H          13.6631   18.2683   17.6460 H     282  UNL282      0.0241
   2255 H          14.6273   19.4588   18.5334 H     282  UNL282      0.0241
   2256 H          14.6273   19.4588   16.7586 H     282  UNL282      0.0241
   2257 CL         17.3049   18.4309   20.9436 Cl    283  UNL283     -0.1257
   2258 C          15.7624   18.0223   20.1623 C.3   283  UNL283      0.0198
   2259 C          14.5979   18.4708   21.0199 C.3   283  UNL283     -0.0517
   2260 H          15.7378   18.5146   19.1859 H     283  UNL283      0.0427
   2261 H          15.7378   16.9398   20.0094 H     283  UNL283      0.0427
   2262 H          13.6510   18.2163   20.5331 H     283  UNL283      0.0241
   2263 H          14.6152   17.9815   21.9993 H     283  UNL283      0.0241
   2264 H          14.6152   19.5543   21.1769 H     283  UNL283      0.0241
   2265 CL         17.3170   18.7315   23.3916 Cl    284  UNL284     -0.1257
   2266 C          15.7745   17.8498   23.3916 C.3   284  UNL284      0.0198
   2267 C          14.6100   18.8176   23.3916 C.3   284  UNL284     -0.0517
   2268 H          15.7499   17.2127   22.5030 H     284  UNL284      0.0427
   2269 H          15.7499   17.2127   24.2801 H     284  UNL284      0.0427
   2270 H          13.6631   18.2683   23.3916 H     284  UNL284      0.0241
   2271 H          14.6273   19.4588   24.2790 H     284  UNL284      0.0241
   2272 H          14.6273   19.4588   22.5042 H     284  UNL284      0.0241
   2273 CL         17.2444   18.7315   26.5945 Cl    285  UNL285     -0.1257
   2274 C          15.7019   17.8498   26.5945 C.3   285  UNL285      0.0198
   2275 C          14.5374   18.8176   26.5945 C.3   285  UNL285     -0.0517
   2276 H          15.6773   17.2127   25.7059 H     285  UNL285      0.0427
   2277 H          15.6773   17.2127   27.4830 H     285  UNL285      0.0427
   2278 H          13.5905   18.2683   26.5945 H     285  UNL285      0.0241
   2279 H          14.5547   19.4588   27.4819 H     285  UNL285      0.0241
   2280 H          14.5547   19.4588   25.7071 H     285  UNL285      0.0241
   2281 CL         17.3170   18.7315   29.6873 Cl    286  UNL286     -0.1257
   2282 C          15.7745   17.8498   29.6873 C.3   286  UNL286      0.0198
   2283 C          14.6100   18.8176   29.6873 C.3   286  UNL286     -0.0517
   2284 H          15.7499   17.2127   28.7987 H     286  UNL286      0.0427
   2285 H          15.7499   17.2127   30.5758 H     286  UNL286      0.0427
   2286 H          13.6631   18.2683   29.6873 H     286  UNL286      0.0241
   2287 H          14.6273   19.4588   30.5747 H     286  UNL286      0.0241
   2288 H          14.6273   19.4588   28.7999 H     286  UNL286      0.0241
   2289 CL         13.5461   17.5051   33.6025 Cl    287  UNL287     -0.1257
   2290 C          14.5645   18.5180   34.6482 C.3   287  UNL287      0.0198
   2291 C          15.9876   18.5509   34.1322 C.3   287  UNL287     -0.0517
   2292 H          14.1347   19.5236   34.6662 H     287  UNL287      0.0427
   2293 H          14.5276   18.1032   35.6594 H     287  UNL287      0.0427
   2294 H          16.6096   19.1763   34.7805 H     287  UNL287      0.0241
   2295 H          16.4253   17.5474   34.1118 H     287  UNL287      0.0241
   2296 H          16.0329   18.9659   33.1199 H     287  UNL287      0.0241
   2297 CL         22.1223   -0.3566   10.7802 Cl    288  UNL288     -0.1257
   2298 C          20.5798   -0.7651    9.9989 C.3   288  UNL288      0.0198
   2299 C          19.4153   -0.3167   10.8565 C.3   288  UNL288     -0.0517
   2300 H          20.5552   -0.2729    9.0225 H     288  UNL288      0.0427
   2301 H          20.5552   -1.8477    9.8460 H     288  UNL288      0.0427
   2302 H          18.4684   -0.5712   10.3697 H     288  UNL288      0.0241
   2303 H          19.4326   -0.8059   11.8359 H     288  UNL288      0.0241
   2304 H          19.4326    0.7668   11.0135 H     288  UNL288      0.0241
   2305 CL         22.1223   -0.6059   13.4603 Cl    289  UNL289     -0.1257
   2306 C          20.5798   -1.4876   13.4603 C.3   289  UNL289      0.0198
   2307 C          19.4153   -0.5198   13.4603 C.3   289  UNL289     -0.0517
   2308 H          20.5552   -2.1247   12.5717 H     289  UNL289      0.0427
   2309 H          20.5552   -2.1247   14.3488 H     289  UNL289      0.0427
   2310 H          18.4684   -1.0691   13.4603 H     289  UNL289      0.0241
   2311 H          19.4326    0.1214   14.3477 H     289  UNL289      0.0241
   2312 H          19.4326    0.1214   12.5729 H     289  UNL289      0.0241
   2313 CL         22.1223   -0.1365   19.0749 Cl    290  UNL290     -0.1257
   2314 C          20.5798   -0.5451   19.8562 C.3   290  UNL290      0.0198
   2315 C          19.4153   -0.0966   18.9986 C.3   290  UNL290     -0.0517
   2316 H          20.5552   -1.6278   20.0090 H     290  UNL290      0.0427
   2317 H          20.5552   -0.0530   20.8325 H     290  UNL290      0.0427
   2318 H          18.4684   -0.3512   19.4854 H     290  UNL290      0.0241
   2319 H          19.4326    0.9868   18.8416 H     290  UNL290      0.0241
   2320 H          19.4326   -0.5859   18.0192 H     290  UNL290      0.0241
   2321 CL         22.1223   -0.6059   22.4088 Cl    291  UNL291     -0.1257
   2322 C          20.5798   -1.4876   22.4088 C.3   291  UNL291      0.0198
   2323 C          19.4153   -0.5198   22.4088 C.3   291  UNL291     -0.0517
   2324 H          20.5552   -2.1247   21.5202 H     291  UNL291      0.0427
   2325 H          20.5552   -2.1247   23.2973 H     291  UNL291      0.0427
   2326 H          18.4684   -1.0691   22.4088 H     291  UNL291      0.0241
   2327 H          19.4326    0.1214   23.2962 H     291  UNL291      0.0241
   2328 H          19.4326    0.1214   21.5214 H     291  UNL291      0.0241
   2329 CL         22.1465   -0.7965   34.0253 Cl    292  UNL292     -0.1257
   2330 C          20.6040   -1.2051   34.8066 C.3   292  UNL292      0.0198
   2331 C          19.4395   -0.7566   33.9490 C.3   292  UNL292     -0.0517
   2332 H          20.5794   -2.2878   34.9595 H     292  UNL292      0.0427
   2333 H          20.5794   -0.7130   35.7829 H     292  UNL292      0.0427
   2334 H          18.4926   -1.0112   34.4358 H     292  UNL292      0.0241
   2335 H          19.4568    0.3268   33.7920 H     292  UNL292      0.0241
   2336 H          19.4568   -1.2459   32.9696 H     292  UNL292      0.0241
   2337 CL         19.9453    2.2350    2.9774 Cl    293  UNL293     -0.1257
   2338 C          20.4343    0.7662    2.1055 C.3   293  UNL293      0.0198
   2339 C          19.6787    0.6484    0.7987 C.3   293  UNL293     -0.0517
   2340 H          21.5119    0.8225    1.9272 H     293  UNL293      0.0427
   2341 H          20.2305   -0.0929    2.7507 H     293  UNL293      0.0427
   2342 H          19.9844   -0.2581    0.2666 H     293  UNL293      0.0241
   2343 H          18.5986    0.5908    0.9690 H     293  UNL293      0.0241
   2344 H          19.8783    1.5051    0.1466 H     293  UNL293      0.0241
   2345 CL         22.1465    3.1686    4.5119 Cl    294  UNL294     -0.1257
   2346 C          20.6040    2.2869    4.5119 C.3   294  UNL294      0.0198
   2347 C          19.4395    3.2547    4.5119 C.3   294  UNL294     -0.0517
   2348 H          20.5794    1.6498    3.6233 H     294  UNL294      0.0427
   2349 H          20.5794    1.6498    5.4004 H     294  UNL294      0.0427
   2350 H          18.4926    2.7054    4.5119 H     294  UNL294      0.0241
   2351 H          19.4568    3.8959    5.3993 H     294  UNL294      0.0241
   2352 H          19.4568    3.8959    3.6245 H     294  UNL294      0.0241
   2353 CL         22.1707   -0.8314    5.7147 Cl    295  UNL295     -0.1257
   2354 C          20.6282   -1.7131    5.7147 C.3   295  UNL295      0.0198
   2355 C          19.4637   -0.7453    5.7147 C.3   295  UNL295     -0.0517
   2356 H          20.6036   -2.3502    4.8261 H     295  UNL295      0.0427
   2357 H          20.6036   -2.3502    6.6032 H     295  UNL295      0.0427
   2358 H          18.5168   -1.2946    5.7147 H     295  UNL295      0.0241
   2359 H          19.4810   -0.1041    6.6021 H     295  UNL295      0.0241
   2360 H          19.4810   -0.1041    4.8273 H     295  UNL295      0.0241
   2361 CL         22.1828    3.2786   10.4775 Cl    296  UNL296     -0.1257
   2362 C          20.6403    2.3969   10.4775 C.3   296  UNL296      0.0198
   2363 C          19.4758    3.3647   10.4775 C.3   296  UNL296     -0.0517
   2364 H          20.6157    1.7598    9.5889 H     296  UNL296      0.0427
   2365 H          20.6157    1.7598   11.3660 H     296  UNL296      0.0427
   2366 H          18.5289    2.8154   10.4775 H     296  UNL296      0.0241
   2367 H          19.4931    4.0059   11.3649 H     296  UNL296      0.0241
   2368 H          19.4931    4.0059    9.5901 H     296  UNL296      0.0241
   2369 CL         22.1949    1.0949   13.4603 Cl    297  UNL297     -0.1257
   2370 C          20.6524    0.2132   13.4603 C.3   297  UNL297      0.0198
   2371 C          19.4879    1.1810   13.4603 C.3   297  UNL297     -0.0517
   2372 H          20.6278   -0.4239   12.5717 H     297  UNL297      0.0427
   2373 H          20.6278   -0.4239   14.3488 H     297  UNL297      0.0427
   2374 H          18.5410    0.6317   13.4603 H     297  UNL297      0.0241
   2375 H          19.5052    1.8222   14.3477 H     297  UNL297      0.0241
   2376 H          19.5052    1.8222   12.5729 H     297  UNL297      0.0241
   2377 CL         19.5332    0.6312   16.1405 Cl    298  UNL298     -0.1257
   2378 C          18.4564    1.8088   16.9218 C.3   298  UNL298      0.0198
   2379 C          18.3142    3.0485   16.0642 C.3   298  UNL298     -0.0517
   2380 H          17.4856    1.3289   17.0746 H     298  UNL298      0.0427
   2381 H          18.8812    2.0586   17.8981 H     298  UNL298      0.0427
   2382 H          17.6499    3.7697   16.5509 H     298  UNL298      0.0241
   2383 H          19.2824    3.5352   15.9072 H     298  UNL298      0.0241
   2384 H          17.8887    2.8065   15.0848 H     298  UNL298      0.0241
   2385 CL         22.1586    2.9780   19.7287 Cl    299  UNL299     -0.1257
   2386 C          20.6161    2.5695   18.9473 C.3   299  UNL299      0.0198
   2387 C          19.4516    3.0179   19.8050 C.3   299  UNL299     -0.0517
   2388 H          20.5915    3.0617   17.9710 H     299  UNL299      0.0427
   2389 H          20.5915    1.4869   18.7945 H     299  UNL299      0.0427
   2390 H          18.5047    2.7634   19.3182 H     299  UNL299      0.0241
   2391 H          19.4689    2.5286   20.7844 H     299  UNL299      0.0241
   2392 H          19.4689    4.1014   19.9620 H     299  UNL299      0.0241
   2393 CL         22.1223    2.9486   22.4209 Cl    300  UNL300     -0.1257
   2394 C          20.5798    2.0669   22.4209 C.3   300  UNL300      0.0198
   2395 C          19.4153    3.0347   22.4209 C.3   300  UNL300     -0.0517
   2396 H          20.5552    1.4298   21.5323 H     300  UNL300      0.0427
   2397 H          20.5552    1.4298   23.3094 H     300  UNL300      0.0427
   2398 H          18.4684    2.4854   22.4209 H     300  UNL300      0.0241
   2399 H          19.4326    3.6759   23.3083 H     300  UNL300      0.0241
   2400 H          19.4326    3.6759   21.5335 H     300  UNL300      0.0241
   2401 CL         22.1707    2.9486   28.3503 Cl    301  UNL301     -0.1257
   2402 C          20.6282    2.0669   28.3503 C.3   301  UNL301      0.0198
   2403 C          19.4637    3.0347   28.3503 C.3   301  UNL301     -0.0517
   2404 H          20.6036    1.4298   27.4617 H     301  UNL301      0.0427
   2405 H          20.6036    1.4298   29.2388 H     301  UNL301      0.0427
   2406 H          18.5168    2.4854   28.3503 H     301  UNL301      0.0241
   2407 H          19.4810    3.6759   29.2377 H     301  UNL301      0.0241
   2408 H          19.4810    3.6759   27.4629 H     301  UNL301      0.0241
   2409 CL         22.1223    2.1707   34.0726 Cl    302  UNL302     -0.1257
   2410 C          20.5798    2.6738   34.7967 C.3   302  UNL302      0.0198
   2411 C          19.4153    2.1216   34.0019 C.3   302  UNL302     -0.0517
   2412 H          20.5552    2.3076   35.8269 H     302  UNL302      0.0427
   2413 H          20.5552    3.7670   34.8129 H     302  UNL302      0.0427
   2414 H          18.4684    2.4350   34.4530 H     302  UNL302      0.0241
   2415 H          19.4326    2.4845   32.9689 H     302  UNL302      0.0241
   2416 H          19.4326    1.0270   33.9816 H     302  UNL302      0.0241
   2417 CL         22.1828    4.4053    1.5411 Cl    303  UNL303     -0.1257
   2418 C          20.6403    3.5236    1.5411 C.3   303  UNL303      0.0198
   2419 C          19.4758    4.4914    1.5411 C.3   303  UNL303     -0.0517
   2420 H          20.6157    2.8865    0.6525 H     303  UNL303      0.0427
   2421 H          20.6157    2.8865    2.4296 H     303  UNL303      0.0427
   2422 H          18.5289    3.9421    1.5411 H     303  UNL303      0.0241
   2423 H          19.4931    5.1326    2.4285 H     303  UNL303      0.0241
   2424 H          19.4931    5.1326    0.6537 H     303  UNL303      0.0241
   2425 CL         22.1586    6.2832    4.5119 Cl    304  UNL304     -0.1257
   2426 C          20.6161    5.4015    4.5119 C.3   304  UNL304      0.0198
   2427 C          19.4516    6.3693    4.5119 C.3   304  UNL304     -0.0517
   2428 H          20.5915    4.7644    3.6233 H     304  UNL304      0.0427
   2429 H          20.5915    4.7644    5.4004 H     304  UNL304      0.0427
   2430 H          18.5047    5.8200    4.5119 H     304  UNL304      0.0241
   2431 H          19.4689    7.0105    5.3993 H     304  UNL304      0.0241
   2432 H          19.4689    7.0105    3.6245 H     304  UNL304      0.0241
   2433 CL         19.1266    1.0677    9.1763 Cl    305  UNL305     -0.1257
   2434 C          19.3434    1.8848    7.6136 C.3   305  UNL305      0.0198
   2435 C          20.8156    2.0487    7.3001 C.3   305  UNL305     -0.0517
   2436 H          18.8477    1.2832    6.8465 H     305  UNL305      0.0427
   2437 H          18.8477    2.8580    7.6699 H     305  UNL305      0.0427
   2438 H          20.9423    2.5526    6.3365 H     305  UNL305      0.0241
   2439 H          21.3190    2.6509    8.0636 H     305  UNL305      0.0241
   2440 H          21.3190    1.0781    7.2412 H     305  UNL305      0.0241
   2441 CL         22.1465    6.0926   10.7923 Cl    306  UNL306     -0.1257
   2442 C          20.6040    5.6840   10.0110 C.3   306  UNL306      0.0198
   2443 C          19.4395    6.1325   10.8686 C.3   306  UNL306     -0.0517
   2444 H          20.5794    6.1763    9.0346 H     306  UNL306      0.0427
   2445 H          20.5794    4.6015    9.8581 H     306  UNL306      0.0427
   2446 H          18.4926    5.8780   10.3818 H     306  UNL306      0.0241
   2447 H          19.4568    5.6432   11.8480 H     306  UNL306      0.0241
   2448 H          19.4568    7.2160   11.0256 H     306  UNL306      0.0241
   2449 CL         18.7957    5.7871   13.4603 Cl    307  UNL307     -0.1257
   2450 C          20.2751    4.8032   13.4603 C.3   307  UNL307      0.0198
   2451 C          19.9317    3.3285   13.4603 C.3   307  UNL307     -0.0517
   2452 H          20.8557    5.0667   12.5717 H     307  UNL307      0.0427
   2453 H          20.8557    5.0667   14.3488 H     307  UNL307      0.0427
   2454 H          20.8470    2.7281   13.4603 H     307  UNL307      0.0241
   2455 H          19.3507    3.0567   14.3477 H     307  UNL307      0.0241
   2456 H          19.3507    3.0567   12.5729 H     307  UNL307      0.0241
   2457 CL         20.0486    6.5032   16.4432 Cl    308  UNL308     -0.1257
   2458 C          18.5061    5.6215   16.4432 C.3   308  UNL308      0.0198
   2459 C          17.3416    6.5893   16.4432 C.3   308  UNL308     -0.0517
   2460 H          18.4815    4.9844   15.5546 H     308  UNL308      0.0427
   2461 H          18.4815    4.9844   17.3317 H     308  UNL308      0.0427
   2462 H          16.3947    6.0400   16.4432 H     308  UNL308      0.0241
   2463 H          17.3589    7.2305   17.3306 H     308  UNL308      0.0241
   2464 H          17.3589    7.2305   15.5558 H     308  UNL308      0.0241
   2465 CL         22.1586    6.5326   19.0749 Cl    309  UNL309     -0.1257
   2466 C          20.6161    6.1241   19.8562 C.3   309  UNL309      0.0198
   2467 C          19.4516    6.5725   18.9986 C.3   309  UNL309     -0.0517
   2468 H          20.5915    5.0414   20.0090 H     309  UNL309      0.0427
   2469 H          20.5915    6.6162   20.8325 H     309  UNL309      0.0427
   2470 H          18.5047    6.3180   19.4854 H     309  UNL309      0.0241
   2471 H          19.4689    7.6560   18.8416 H     309  UNL309      0.0241
   2472 H          19.4689    6.0832   18.0192 H     309  UNL309      0.0241
   2473 CL         22.1223    6.0632   22.3725 Cl    310  UNL310     -0.1257
   2474 C          20.5798    5.1815   22.3725 C.3   310  UNL310      0.0198
   2475 C          19.4153    6.1493   22.3725 C.3   310  UNL310     -0.0517
   2476 H          20.5552    4.5444   21.4839 H     310  UNL310      0.0427
   2477 H          20.5552    4.5444   23.2610 H     310  UNL310      0.0427
   2478 H          18.4684    5.6000   22.3725 H     310  UNL310      0.0241
   2479 H          19.4326    6.7905   23.2599 H     310  UNL310      0.0241
   2480 H          19.4326    6.7905   21.4851 H     310  UNL310      0.0241
   2481 CL         20.9333    5.4332   26.6097 Cl    311  UNL311     -0.1257
   2482 C          20.0035    4.7251   25.2715 C.3   311  UNL311      0.0198
   2483 C          20.0483    3.2129   25.3359 C.3   311  UNL311     -0.0517
   2484 H          18.9741    5.0866   25.3472 H     311  UNL311      0.0427
   2485 H          20.4336    5.0866   24.3333 H     311  UNL311      0.0427
   2486 H          19.4739    2.7830   24.5091 H     311  UNL311      0.0241
   2487 H          21.0761    2.8430   25.2600 H     311  UNL311      0.0241
   2488 H          19.6185    2.8430   26.2726 H     311  UNL311      0.0241
   2489 CL         22.1707    6.5032   28.3745 Cl    312  UNL312     -0.1257
   2490 C          20.6282    5.6215   28.3745 C.3   312  UNL312      0.0198
   2491 C          19.4637    6.5893   28.3745 C.3   312  UNL312     -0.0517
   2492 H          20.6036    4.9844   27.4859 H     312  UNL312      0.0427
   2493 H          20.6036    4.9844   29.2630 H     312  UNL312      0.0427
   2494 H          18.5168    6.0400   28.3745 H     312  UNL312      0.0241
   2495 H          19.4810    7.2305   29.2619 H     312  UNL312      0.0241
   2496 H          19.4810    7.2305   27.4871 H     312  UNL312      0.0241
   2497 CL         18.5575    4.7134   30.0767 Cl    313  UNL313     -0.1257
   2498 C          20.1870    4.3853   30.7042 C.3   313  UNL313      0.0198
   2499 C          20.1085    3.6846   32.0442 C.3   313  UNL313     -0.0517
   2500 H          20.7121    3.7654   29.9720 H     313  UNL313      0.0427
   2501 H          20.7121    5.3402   30.7955 H     313  UNL313      0.0427
   2502 H          21.1153    3.4854   32.4251 H     313  UNL313      0.0241
   2503 H          19.5845    4.2996   32.7831 H     313  UNL313      0.0241
   2504 H          19.5845    2.7268   31.9607 H     313  UNL313      0.0241
   2505 CL         22.2323    5.2832   34.3764 Cl    314  UNL314     -0.1257
   2506 C          20.6898    4.4015   34.3764 C.3   314  UNL314      0.0198
   2507 C          19.5253    5.3693   34.3764 C.3   314  UNL314     -0.0517
   2508 H          20.6652    3.7644   33.4878 H     314  UNL314      0.0427
   2509 H          20.6652    3.7644   35.2649 H     314  UNL314      0.0427
   2510 H          18.5784    4.8200   34.3764 H     314  UNL314      0.0241
   2511 H          19.5426    6.0105   35.2638 H     314  UNL314      0.0241
   2512 H          19.5426    6.0105   33.4890 H     314  UNL314      0.0241
   2513 CL         22.1586    7.7278    1.5290 Cl    315  UNL315     -0.1257
   2514 C          20.6161    6.8461    1.5290 C.3   315  UNL315      0.0198
   2515 C          19.4516    7.8139    1.5290 C.3   315  UNL315     -0.0517
   2516 H          20.5915    6.2090    0.6404 H     315  UNL315      0.0427
   2517 H          20.5915    6.2090    2.4175 H     315  UNL315      0.0427
   2518 H          18.5047    7.2646    1.5290 H     315  UNL315      0.0241
   2519 H          19.4689    8.4551    2.4164 H     315  UNL315      0.0241
   2520 H          19.4689    8.4551    0.6416 H     315  UNL315      0.0241
   2521 CL         22.1949    9.3978    4.4998 Cl    316  UNL316     -0.1257
   2522 C          20.6524    8.5161    4.4998 C.3   316  UNL316      0.0198
   2523 C          19.4879    9.4839    4.4998 C.3   316  UNL316     -0.0517
   2524 H          20.6278    7.8790    3.6112 H     316  UNL316      0.0427
   2525 H          20.6278    7.8790    5.3883 H     316  UNL316      0.0427
   2526 H          18.5410    8.9346    4.4998 H     316  UNL316      0.0241
   2527 H          19.5052   10.1251    5.3872 H     316  UNL316      0.0241
   2528 H          19.5052   10.1251    3.6124 H     316  UNL316      0.0241
   2529 CL         20.7789    7.4657    7.4826 Cl    317  UNL317     -0.1257
   2530 C          20.8455    5.6902    7.4826 C.3   317  UNL317      0.0198
   2531 C          19.4482    5.1067    7.4826 C.3   317  UNL317     -0.0517
   2532 H          21.3986    5.3732    6.5940 H     317  UNL317      0.0427
   2533 H          21.3986    5.3732    8.3711 H     317  UNL317      0.0427
   2534 H          19.4962    4.0131    7.4826 H     317  UNL317      0.0241
   2535 H          18.8880    5.4192    8.3700 H     317  UNL317      0.0241
   2536 H          18.8880    5.4192    6.5952 H     317  UNL317      0.0241
   2537 CL         22.1223    9.3978   10.4775 Cl    318  UNL318     -0.1257
   2538 C          20.5798    8.5161   10.4775 C.3   318  UNL318      0.0198
   2539 C          19.4153    9.4839   10.4775 C.3   318  UNL318     -0.0517
   2540 H          20.5552    7.8790    9.5889 H     318  UNL318      0.0427
   2541 H          20.5552    7.8790   11.3660 H     318  UNL318      0.0427
   2542 H          18.4684    8.9346   10.4775 H     318  UNL318      0.0241
   2543 H          19.4326   10.1251   11.3649 H     318  UNL318      0.0241
   2544 H          19.4326   10.1251    9.5901 H     318  UNL318      0.0241
   2545 CL         22.1707    7.7641   13.4603 Cl    319  UNL319     -0.1257
   2546 C          20.6282    6.8824   13.4603 C.3   319  UNL319      0.0198
   2547 C          19.4637    7.8502   13.4603 C.3   319  UNL319     -0.0517
   2548 H          20.6036    6.2453   12.5717 H     319  UNL319      0.0427
   2549 H          20.6036    6.2453   14.3488 H     319  UNL319      0.0427
   2550 H          18.5168    7.3009   13.4603 H     319  UNL319      0.0241
   2551 H          19.4810    8.4914   14.3477 H     319  UNL319      0.0241
   2552 H          19.4810    8.4914   12.5729 H     319  UNL319      0.0241
   2553 CL         22.1949    9.3978   16.4069 Cl    320  UNL320     -0.1257
   2554 C          20.6524    8.5161   16.4069 C.3   320  UNL320      0.0198
   2555 C          19.4879    9.4839   16.4069 C.3   320  UNL320     -0.0517
   2556 H          20.6278    7.8790   15.5183 H     320  UNL320      0.0427
   2557 H          20.6278    7.8790   17.2954 H     320  UNL320      0.0427
   2558 H          18.5410    8.9346   16.4069 H     320  UNL320      0.0241
   2559 H          19.5052   10.1251   17.2943 H     320  UNL320      0.0241
   2560 H          19.5052   10.1251   15.5195 H     320  UNL320      0.0241
   2561 CL         22.1586    9.4272   19.0991 Cl    321  UNL321     -0.1257
   2562 C          20.6161    9.0186   19.8804 C.3   321  UNL321      0.0198
   2563 C          19.4516    9.4671   19.0228 C.3   321  UNL321     -0.0517
   2564 H          20.5915    7.9360   20.0332 H     321  UNL321      0.0427
   2565 H          20.5915    9.5108   20.8567 H     321  UNL321      0.0427
   2566 H          18.5047    9.2125   19.5096 H     321  UNL321      0.0241
   2567 H          19.4689   10.5506   18.8658 H     321  UNL321      0.0241
   2568 H          19.4689    8.9778   18.0434 H     321  UNL321      0.0241
   2569 CL         22.1223    9.3978   22.4088 Cl    322  UNL322     -0.1257
   2570 C          20.5798    8.5161   22.4088 C.3   322  UNL322      0.0198
   2571 C          19.4153    9.4839   22.4088 C.3   322  UNL322     -0.0517
   2572 H          20.5552    7.8790   21.5202 H     322  UNL322      0.0427
   2573 H          20.5552    7.8790   23.2973 H     322  UNL322      0.0427
   2574 H          18.4684    8.9346   22.4088 H     322  UNL322      0.0241
   2575 H          19.4326   10.1251   23.2962 H     322  UNL322      0.0241
   2576 H          19.4326   10.1251   21.5214 H     322  UNL322      0.0241
   2577 CL         22.1949    7.7641   25.3916 Cl    323  UNL323     -0.1257
   2578 C          20.6524    6.8824   25.3916 C.3   323  UNL323      0.0198
   2579 C          19.4879    7.8502   25.3916 C.3   323  UNL323     -0.0517
   2580 H          20.6278    6.2453   24.5030 H     323  UNL323      0.0427
   2581 H          20.6278    6.2453   26.2801 H     323  UNL323      0.0427
   2582 H          18.5410    7.3009   25.3916 H     323  UNL323      0.0241
   2583 H          19.5052    8.4914   26.2790 H     323  UNL323      0.0241
   2584 H          19.5052    8.4914   24.5042 H     323  UNL323      0.0241
   2585 CL         22.1586   10.0578   28.3382 Cl    324  UNL324     -0.1257
   2586 C          20.6161    9.1761   28.3382 C.3   324  UNL324      0.0198
   2587 C          19.4516   10.1439   28.3382 C.3   324  UNL324     -0.0517
   2588 H          20.5915    8.5390   27.4496 H     324  UNL324      0.0427
   2589 H          20.5915    8.5390   29.2267 H     324  UNL324      0.0427
   2590 H          18.5047    9.5946   28.3382 H     324  UNL324      0.0241
   2591 H          19.4689   10.7851   29.2256 H     324  UNL324      0.0241
   2592 H          19.4689   10.7851   27.4508 H     324  UNL324      0.0241
   2593 CL         18.8420    7.7157   32.9892 Cl    325  UNL325     -0.1257
   2594 C          19.7652    6.8340   31.7535 C.3   325  UNL325      0.0198
   2595 C          20.4621    7.8018   30.8205 C.3   325  UNL325     -0.0517
   2596 H          20.4918    6.1969   32.2655 H     325  UNL325      0.0427
   2597 H          19.0681    6.1969   31.2020 H     325  UNL325      0.0427
   2598 H          21.0287    7.2525   30.0619 H     325  UNL325      0.0241
   2599 H          19.7408    8.4430   30.3033 H     325  UNL325      0.0241
   2600 H          21.1627    8.4430   31.3654 H     325  UNL325      0.0241
   2601 CL         22.1949    7.7641   35.3401 Cl    326  UNL326     -0.1257
   2602 C          20.6524    6.8824   35.3401 C.3   326  UNL326      0.0198
   2603 C          19.4879    7.8502   35.3401 C.3   326  UNL326     -0.0517
   2604 H          20.6278    6.2453   34.4515 H     326  UNL326      0.0427
   2605 H          20.6278    6.2453   36.2286 H     326  UNL326      0.0427
   2606 H          18.5410    7.3009   35.3401 H     326  UNL326      0.0241
   2607 H          19.5052    8.4914   36.2275 H     326  UNL326      0.0241
   2608 H          19.5052    8.4914   34.4527 H     326  UNL326      0.0241
   2609 CL         18.6559   12.2261   -0.1410 Cl    327  UNL327     -0.1257
   2610 C          20.2601   11.4624   -0.1410 C.3   327  UNL327      0.0198
   2611 C          20.1298    9.9538   -0.1410 C.3   327  UNL327     -0.0517
   2612 H          20.7974   11.8057   -1.0296 H     327  UNL327      0.0427
   2613 H          20.7974   11.8057    0.7475 H     327  UNL327      0.0427
   2614 H          21.1212    9.4896   -0.1410 H     327  UNL327      0.0241
   2615 H          19.5933    9.6022    0.7464 H     327  UNL327      0.0241
   2616 H          19.5933    9.6022   -1.0284 H     327  UNL327      0.0241
   2617 CL         22.1465   12.8424    2.7319 Cl    328  UNL328     -0.1257
   2618 C          20.6040   11.9607    2.7319 C.3   328  UNL328      0.0198
   2619 C          19.4395   12.9285    2.7319 C.3   328  UNL328     -0.0517
   2620 H          20.5794   11.3236    1.8433 H     328  UNL328      0.0427
   2621 H          20.5794   11.3236    3.6204 H     328  UNL328      0.0427
   2622 H          18.4926   12.3792    2.7319 H     328  UNL328      0.0241
   2623 H          19.4568   13.5697    3.6193 H     328  UNL328      0.0241
   2624 H          19.4568   13.5697    1.8445 H     328  UNL328      0.0241
   2625 CL         19.1266    7.1805    7.5068 Cl    329  UNL329     -0.1257
   2626 C          19.3434    8.9439    7.5068 C.3   329  UNL329      0.0198
   2627 C          20.8156    9.2977    7.5068 C.3   329  UNL329     -0.0517
   2628 H          18.8477    9.3449    6.6182 H     329  UNL329      0.0427
   2629 H          18.8477    9.3449    8.3953 H     329  UNL329      0.0427
   2630 H          20.9423   10.3850    7.5068 H     329  UNL329      0.0241
   2631 H          21.3190    8.9001    8.3942 H     329  UNL329      0.0241
   2632 H          21.3190    8.9001    6.6194 H     329  UNL329      0.0241
   2633 CL         22.2070   12.9818   10.1264 Cl    330  UNL330     -0.1257
   2634 C          20.6645   12.5732   10.9077 C.3   330  UNL330      0.0198
   2635 C          19.5000   13.0217   10.0501 C.3   330  UNL330     -0.0517
   2636 H          20.6399   11.4905   11.0606 H     330  UNL330      0.0427
   2637 H          20.6399   13.0653   11.8840 H     330  UNL330      0.0427
   2638 H          18.5531   12.7671   10.5369 H     330  UNL330      0.0241
   2639 H          19.5173   14.1051    9.8931 H     330  UNL330      0.0241
   2640 H          19.5173   12.5324    9.0707 H     330  UNL330      0.0241
   2641 CL         20.7789   12.6540   13.4845 Cl    331  UNL331     -0.1257
   2642 C          20.8455   10.8785   13.4845 C.3   331  UNL331      0.0198
   2643 C          19.4482   10.2950   13.4845 C.3   331  UNL331     -0.0517
   2644 H          21.3986   10.5615   12.5959 H     331  UNL331      0.0427
   2645 H          21.3986   10.5615   14.3730 H     331  UNL331      0.0427
   2646 H          19.4962    9.2014   13.4845 H     331  UNL331      0.0241
   2647 H          18.8880   10.6075   14.3719 H     331  UNL331      0.0241
   2648 H          18.8880   10.6075   12.5971 H     331  UNL331      0.0241
   2649 CL         22.1707   12.7617   16.7216 Cl    332  UNL332     -0.1257
   2650 C          20.6282   12.3532   15.9403 C.3   332  UNL332      0.0198
   2651 C          19.4637   12.8016   16.7979 C.3   332  UNL332     -0.0517
   2652 H          20.6036   12.8454   14.9640 H     332  UNL332      0.0427
   2653 H          20.6036   11.2706   15.7874 H     332  UNL332      0.0427
   2654 H          18.5168   12.5471   16.3112 H     332  UNL332      0.0241
   2655 H          19.4810   12.3124   17.7773 H     332  UNL332      0.0241
   2656 H          19.4810   13.8851   16.9550 H     332  UNL332      0.0241
   2657 CL         22.1707   12.9818   19.0991 Cl    333  UNL333     -0.1257
   2658 C          20.6282   12.5732   19.8804 C.3   333  UNL333      0.0198
   2659 C          19.4637   13.0217   19.0228 C.3   333  UNL333     -0.0517
   2660 H          20.6036   11.4905   20.0332 H     333  UNL333      0.0427
   2661 H          20.6036   13.0653   20.8567 H     333  UNL333      0.0427
   2662 H          18.5168   12.7671   19.5096 H     333  UNL333      0.0241
   2663 H          19.4810   14.1051   18.8658 H     333  UNL333      0.0241
   2664 H          19.4810   12.5324   18.0434 H     333  UNL333      0.0241
   2665 CL         22.1223   12.5418   22.0940 Cl    334  UNL334     -0.1257
   2666 C          20.5798   12.1332   22.8753 C.3   334  UNL334      0.0198
   2667 C          19.4153   12.5817   22.0177 C.3   334  UNL334     -0.0517
   2668 H          20.5552   11.0505   23.0282 H     334  UNL334      0.0427
   2669 H          20.5552   12.6253   23.8516 H     334  UNL334      0.0427
   2670 H          18.4684   12.3271   22.5045 H     334  UNL334      0.0241
   2671 H          19.4326   13.6651   21.8607 H     334  UNL334      0.0241
   2672 H          19.4326   12.0924   21.0383 H     334  UNL334      0.0241
   2673 CL         22.1949   11.0624   25.3916 Cl    335  UNL335     -0.1257
   2674 C          20.6524   10.1807   25.3916 C.3   335  UNL335      0.0198
   2675 C          19.4879   11.1485   25.3916 C.3   335  UNL335     -0.0517
   2676 H          20.6278    9.5436   24.5030 H     335  UNL335      0.0427
   2677 H          20.6278    9.5436   26.2801 H     335  UNL335      0.0427
   2678 H          18.5410   10.5992   25.3916 H     335  UNL335      0.0241
   2679 H          19.5052   11.7897   26.2790 H     335  UNL335      0.0241
   2680 H          19.5052   11.7897   24.5042 H     335  UNL335      0.0241
   2681 CL         22.1586   13.1724   28.3745 Cl    336  UNL336     -0.1257
   2682 C          20.6161   12.2907   28.3745 C.3   336  UNL336      0.0198
   2683 C          19.4516   13.2585   28.3745 C.3   336  UNL336     -0.0517
   2684 H          20.5915   11.6536   27.4859 H     336  UNL336      0.0427
   2685 H          20.5915   11.6536   29.2630 H     336  UNL336      0.0427
   2686 H          18.5047   12.7092   28.3745 H     336  UNL336      0.0241
   2687 H          19.4689   13.8997   29.2619 H     336  UNL336      0.0241
   2688 H          19.4689   13.8997   27.4871 H     336  UNL336      0.0241
   2689 CL         20.7547   12.7024   31.3573 Cl    337  UNL337     -0.1257
   2690 C          20.8213   10.9269   31.3573 C.3   337  UNL337      0.0198
   2691 C          19.4240   10.3434   31.3573 C.3   337  UNL337     -0.0517
   2692 H          21.3744   10.6099   30.4687 H     337  UNL337      0.0427
   2693 H          21.3744   10.6099   32.2458 H     337  UNL337      0.0427
   2694 H          19.4720    9.2498   31.3573 H     337  UNL337      0.0241
   2695 H          18.8638   10.6559   32.2447 H     337  UNL337      0.0241
   2696 H          18.8638   10.6559   30.4699 H     337  UNL337      0.0241
   2697 CL         22.1465   12.7618   34.0253 Cl    338  UNL338     -0.1257
   2698 C          20.6040   12.3532   34.8066 C.3   338  UNL338      0.0198
   2699 C          19.4395   12.8017   33.9490 C.3   338  UNL338     -0.0517
   2700 H          20.5794   11.2705   34.9595 H     338  UNL338      0.0427
   2701 H          20.5794   12.8453   35.7829 H     338  UNL338      0.0427
   2702 H          18.4926   12.5471   34.4358 H     338  UNL338      0.0241
   2703 H          19.4568   13.8851   33.7920 H     338  UNL338      0.0241
   2704 H          19.4568   12.3124   32.9696 H     338  UNL338      0.0241
   2705 CL         22.1223   15.8763    1.8559 Cl    339  UNL339     -0.1257
   2706 C          20.5798   15.4678    1.0746 C.3   339  UNL339      0.0198
   2707 C          19.4153   15.9162    1.9322 C.3   339  UNL339     -0.0517
   2708 H          20.5552   15.9600    0.0983 H     339  UNL339      0.0427
   2709 H          20.5552   14.3852    0.9217 H     339  UNL339      0.0427
   2710 H          18.4684   15.6617    1.4454 H     339  UNL339      0.0241
   2711 H          19.4326   15.4269    2.9116 H     339  UNL339      0.0241
   2712 H          19.4326   16.9997    2.0892 H     339  UNL339      0.0241
   2713 CL         22.1223   16.0669    4.5240 Cl    340  UNL340     -0.1257
   2714 C          20.5798   15.1852    4.5240 C.3   340  UNL340      0.0198
   2715 C          19.4153   16.1530    4.5240 C.3   340  UNL340     -0.0517
   2716 H          20.5552   14.5481    3.6354 H     340  UNL340      0.0427
   2717 H          20.5552   14.5481    5.4125 H     340  UNL340      0.0427
   2718 H          18.4684   15.6037    4.5240 H     340  UNL340      0.0241
   2719 H          19.4326   16.7942    5.4114 H     340  UNL340      0.0241
   2720 H          19.4326   16.7942    3.6366 H     340  UNL340      0.0241
   2721 CL         22.1707   12.5363    5.2899 Cl    341  UNL341     -0.1257
   2722 C          20.6282   12.1278    6.0712 C.3   341  UNL341      0.0198
   2723 C          19.4637   12.5762    5.2136 C.3   341  UNL341     -0.0517
   2724 H          20.6036   11.0451    6.2240 H     341  UNL341      0.0427
   2725 H          20.6036   12.6199    7.0475 H     341  UNL341      0.0427
   2726 H          18.5168   12.3217    5.7004 H     341  UNL341      0.0241
   2727 H          19.4810   13.6597    5.0566 H     341  UNL341      0.0241
   2728 H          19.4810   12.0870    4.2342 H     341  UNL341      0.0241
   2729 CL         22.1223   15.5091   10.1858 Cl    342  UNL342     -0.1257
   2730 C          20.5798   16.0121   10.9099 C.3   342  UNL342      0.0198
   2731 C          19.4153   15.4599   10.1151 C.3   342  UNL342     -0.0517
   2732 H          20.5552   15.6459   11.9401 H     342  UNL342      0.0427
   2733 H          20.5552   17.1053   10.9261 H     342  UNL342      0.0427
   2734 H          18.4684   15.7733   10.5662 H     342  UNL342      0.0241
   2735 H          19.4326   15.8228    9.0821 H     342  UNL342      0.0241
   2736 H          19.4326   14.3653   10.0948 H     342  UNL342      0.0241
   2737 CL         19.1266   12.2214   13.4603 Cl    343  UNL343     -0.1257
   2738 C          19.3434   13.9848   13.4603 C.3   343  UNL343      0.0198
   2739 C          20.8156   14.3386   13.4603 C.3   343  UNL343     -0.0517
   2740 H          18.8477   14.3858   12.5717 H     343  UNL343      0.0427
   2741 H          18.8477   14.3858   14.3488 H     343  UNL343      0.0427
   2742 H          20.9423   15.4259   13.4603 H     343  UNL343      0.0241
   2743 H          21.3190   13.9410   14.3477 H     343  UNL343      0.0241
   2744 H          21.3190   13.9410   12.5729 H     343  UNL343      0.0241
   2745 CL         22.1223   16.0669   16.4311 Cl    344  UNL344     -0.1257
   2746 C          20.5798   15.1852   16.4311 C.3   344  UNL344      0.0198
   2747 C          19.4153   16.1530   16.4311 C.3   344  UNL344     -0.0517
   2748 H          20.5552   14.5481   15.5425 H     344  UNL344      0.0427
   2749 H          20.5552   14.5481   17.3196 H     344  UNL344      0.0427
   2750 H          18.4684   15.6037   16.4311 H     344  UNL344      0.0241
   2751 H          19.4326   16.7942   17.3185 H     344  UNL344      0.0241
   2752 H          19.4326   16.7942   15.5437 H     344  UNL344      0.0241
   2753 CL         22.1223   15.8763   19.0749 Cl    345  UNL345     -0.1257
   2754 C          20.5798   15.4678   19.8562 C.3   345  UNL345      0.0198
   2755 C          19.4153   15.9162   18.9986 C.3   345  UNL345     -0.0517
   2756 H          20.5552   14.3851   20.0090 H     345  UNL345      0.0427
   2757 H          20.5552   15.9599   20.8325 H     345  UNL345      0.0427
   2758 H          18.4684   15.6617   19.4854 H     345  UNL345      0.0241
   2759 H          19.4326   16.9997   18.8416 H     345  UNL345      0.0241
   2760 H          19.4326   15.4270   18.0192 H     345  UNL345      0.0241
   2761 CL         22.1223   16.0669   22.3967 Cl    346  UNL346     -0.1257
   2762 C          20.5798   15.1852   22.3967 C.3   346  UNL346      0.0198
   2763 C          19.4153   16.1530   22.3967 C.3   346  UNL346     -0.0517
   2764 H          20.5552   14.5481   21.5081 H     346  UNL346      0.0427
   2765 H          20.5552   14.5481   23.2852 H     346  UNL346      0.0427
   2766 H          18.4684   15.6037   22.3967 H     346  UNL346      0.0241
   2767 H          19.4326   16.7942   23.2841 H     346  UNL346      0.0241
   2768 H          19.4326   16.7942   21.5093 H     346  UNL346      0.0241
   2769 CL         22.1223   15.8763   25.0768 Cl    347  UNL347     -0.1257
   2770 C          20.5798   15.4678   25.8582 C.3   347  UNL347      0.0198
   2771 C          19.4153   15.9162   25.0005 C.3   347  UNL347     -0.0517
   2772 H          20.5552   14.3851   26.0110 H     347  UNL347      0.0427
   2773 H          20.5552   15.9599   26.8344 H     347  UNL347      0.0427
   2774 H          18.4684   15.6617   25.4873 H     347  UNL347      0.0241
   2775 H          19.4326   16.9997   24.8435 H     347  UNL347      0.0241
   2776 H          19.4326   15.4270   24.0211 H     347  UNL347      0.0241
   2777 CL         22.1223   16.0669   28.3624 Cl    348  UNL348     -0.1257
   2778 C          20.5798   15.1852   28.3624 C.3   348  UNL348      0.0198
   2779 C          19.4153   16.1530   28.3624 C.3   348  UNL348     -0.0517
   2780 H          20.5552   14.5481   27.4738 H     348  UNL348      0.0427
   2781 H          20.5552   14.5481   29.2509 H     348  UNL348      0.0427
   2782 H          18.4684   15.6037   28.3624 H     348  UNL348      0.0241
   2783 H          19.4326   16.7942   29.2498 H     348  UNL348      0.0241
   2784 H          19.4326   16.7942   27.4750 H     348  UNL348      0.0241
   2785 CL         22.1223   15.8763   31.6963 Cl    349  UNL349     -0.1257
   2786 C          20.5798   15.4678   30.9149 C.3   349  UNL349      0.0198
   2787 C          19.4153   15.9162   31.7726 C.3   349  UNL349     -0.0517
   2788 H          20.5552   15.9600   29.9386 H     349  UNL349      0.0427
   2789 H          20.5552   14.3852   30.7621 H     349  UNL349      0.0427
   2790 H          18.4684   15.6617   31.2858 H     349  UNL349      0.0241
   2791 H          19.4326   15.4269   32.7520 H     349  UNL349      0.0241
   2792 H          19.4326   16.9997   31.9296 H     349  UNL349      0.0241
   2793 CL         22.1223   16.0669   34.3280 Cl    350  UNL350     -0.1257
   2794 C          20.5798   15.1852   34.3280 C.3   350  UNL350      0.0198
   2795 C          19.4153   16.1530   34.3280 C.3   350  UNL350     -0.0517
   2796 H          20.5552   14.5481   33.4394 H     350  UNL350      0.0427
   2797 H          20.5552   14.5481   35.2165 H     350  UNL350      0.0427
   2798 H          18.4684   15.6037   34.3280 H     350  UNL350      0.0241
   2799 H          19.4326   16.7942   35.2154 H     350  UNL350      0.0241
   2800 H          19.4326   16.7942   33.4406 H     350  UNL350      0.0241
   2801 CL         22.1949   18.7315    1.4927 Cl    351  UNL351     -0.1257
   2802 C          20.6524   17.8498    1.4927 C.3   351  UNL351      0.0198
   2803 C          19.4879   18.8176    1.4927 C.3   351  UNL351     -0.0517
   2804 H          20.6278   17.2127    0.6041 H     351  UNL351      0.0427
   2805 H          20.6278   17.2127    2.3812 H     351  UNL351      0.0427
   2806 H          18.5410   18.2683    1.4927 H     351  UNL351      0.0241
   2807 H          19.5052   19.4588    2.3801 H     351  UNL351      0.0241
   2808 H          19.5052   19.4588    0.6053 H     351  UNL351      0.0241
   2809 CL         22.1949   18.7315    4.4877 Cl    352  UNL352     -0.1257
   2810 C          20.6524   17.8498    4.4877 C.3   352  UNL352      0.0198
   2811 C          19.4879   18.8176    4.4877 C.3   352  UNL352     -0.0517
   2812 H          20.6278   17.2127    3.5991 H     352  UNL352      0.0427
   2813 H          20.6278   17.2127    5.3762 H     352  UNL352      0.0427
   2814 H          18.5410   18.2683    4.4877 H     352  UNL352      0.0241
   2815 H          19.5052   19.4588    5.3751 H     352  UNL352      0.0241
   2816 H          19.5052   19.4588    3.6003 H     352  UNL352      0.0241
   2817 CL         22.1223   18.7315    7.4705 Cl    353  UNL353     -0.1257
   2818 C          20.5798   17.8498    7.4705 C.3   353  UNL353      0.0198
   2819 C          19.4153   18.8176    7.4705 C.3   353  UNL353     -0.0517
   2820 H          20.5552   17.2127    6.5819 H     353  UNL353      0.0427
   2821 H          20.5552   17.2127    8.3590 H     353  UNL353      0.0427
   2822 H          18.4684   18.2683    7.4705 H     353  UNL353      0.0241
   2823 H          19.4326   19.4588    8.3579 H     353  UNL353      0.0241
   2824 H          19.4326   19.4588    6.5831 H     353  UNL353      0.0241
   2825 CL         22.1949   18.7315   10.5017 Cl    354  UNL354     -0.1257
   2826 C          20.6524   17.8498   10.5017 C.3   354  UNL354      0.0198
   2827 C          19.4879   18.8176   10.5017 C.3   354  UNL354     -0.0517
   2828 H          20.6278   17.2127    9.6131 H     354  UNL354      0.0427
   2829 H          20.6278   17.2127   11.3902 H     354  UNL354      0.0427
   2830 H          18.5410   18.2683   10.5017 H     354  UNL354      0.0241
   2831 H          19.5052   19.4588   11.3891 H     354  UNL354      0.0241
   2832 H          19.5052   19.4588    9.6143 H     354  UNL354      0.0241
   2833 CL         22.1586   18.4309   13.7872 Cl    355  UNL355     -0.1257
   2834 C          20.6161   18.0223   13.0059 C.3   355  UNL355      0.0198
   2835 C          19.4516   18.4708   13.8635 C.3   355  UNL355     -0.0517
   2836 H          20.5915   18.5146   12.0296 H     355  UNL355      0.0427
   2837 H          20.5915   16.9398   12.8530 H     355  UNL355      0.0427
   2838 H          18.5047   18.2163   13.3767 H     355  UNL355      0.0241
   2839 H          19.4689   17.9815   14.8429 H     355  UNL355      0.0241
   2840 H          19.4689   19.5543   14.0205 H     355  UNL355      0.0241
   2841 CL         22.1949   18.7315   16.4069 Cl    356  UNL356     -0.1257
   2842 C          20.6524   17.8498   16.4069 C.3   356  UNL356      0.0198
   2843 C          19.4879   18.8176   16.4069 C.3   356  UNL356     -0.0517
   2844 H          20.6278   17.2127   15.5183 H     356  UNL356      0.0427
   2845 H          20.6278   17.2127   17.2954 H     356  UNL356      0.0427
   2846 H          18.5410   18.2683   16.4069 H     356  UNL356      0.0241
   2847 H          19.5052   19.4588   17.2943 H     356  UNL356      0.0241
   2848 H          19.5052   19.4588   15.5195 H     356  UNL356      0.0241
   2849 CL         22.1949   18.7315   19.3897 Cl    357  UNL357     -0.1257
   2850 C          20.6524   17.8498   19.3897 C.3   357  UNL357      0.0198
   2851 C          19.4879   18.8176   19.3897 C.3   357  UNL357     -0.0517
   2852 H          20.6278   17.2127   18.5011 H     357  UNL357      0.0427
   2853 H          20.6278   17.2127   20.2782 H     357  UNL357      0.0427
   2854 H          18.5410   18.2683   19.3897 H     357  UNL357      0.0241
   2855 H          19.5052   19.4588   20.2771 H     357  UNL357      0.0241
   2856 H          19.5052   19.4588   18.5023 H     357  UNL357      0.0241
   2857 CL         22.1949   18.7315   22.3846 Cl    358  UNL358     -0.1257
   2858 C          20.6524   17.8498   22.3846 C.3   358  UNL358      0.0198
   2859 C          19.4879   18.8176   22.3846 C.3   358  UNL358     -0.0517
   2860 H          20.6278   17.2127   21.4960 H     358  UNL358      0.0427
   2861 H          20.6278   17.2127   23.2731 H     358  UNL358      0.0427
   2862 H          18.5410   18.2683   22.3846 H     358  UNL358      0.0241
   2863 H          19.5052   19.4588   23.2720 H     358  UNL358      0.0241
   2864 H          19.5052   19.4588   21.4972 H     358  UNL358      0.0241
   2865 CL         22.1949   18.7315   25.3795 Cl    359  UNL359     -0.1257
   2866 C          20.6524   17.8498   25.3795 C.3   359  UNL359      0.0198
   2867 C          19.4879   18.8176   25.3795 C.3   359  UNL359     -0.0517
   2868 H          20.6278   17.2127   24.4909 H     359  UNL359      0.0427
   2869 H          20.6278   17.2127   26.2680 H     359  UNL359      0.0427
   2870 H          18.5410   18.2683   25.3795 H     359  UNL359      0.0241
   2871 H          19.5052   19.4588   26.2669 H     359  UNL359      0.0241
   2872 H          19.5052   19.4588   24.4921 H     359  UNL359      0.0241
   2873 CL         22.1949   18.7315   28.3866 Cl    360  UNL360     -0.1257
   2874 C          20.6524   17.8498   28.3866 C.3   360  UNL360      0.0198
   2875 C          19.4879   18.8176   28.3866 C.3   360  UNL360     -0.0517
   2876 H          20.6278   17.2127   27.4980 H     360  UNL360      0.0427
   2877 H          20.6278   17.2127   29.2751 H     360  UNL360      0.0427
   2878 H          18.5410   18.2683   28.3866 H     360  UNL360      0.0241
   2879 H          19.5052   19.4588   29.2740 H     360  UNL360      0.0241
   2880 H          19.5052   19.4588   27.4992 H     360  UNL360      0.0241
   2881 CL         22.1949   18.7315   31.3936 Cl    361  UNL361     -0.1257
   2882 C          20.6524   17.8498   31.3936 C.3   361  UNL361      0.0198
   2883 C          19.4879   18.8176   31.3936 C.3   361  UNL361     -0.0517
   2884 H          20.6278   17.2127   30.5050 H     361  UNL361      0.0427
   2885 H          20.6278   17.2127   32.2821 H     361  UNL361      0.0427
   2886 H          18.5410   18.2683   31.3936 H     361  UNL361      0.0241
   2887 H          19.5052   19.4588   32.2810 H     361  UNL361      0.0241
   2888 H          19.5052   19.4588   30.5062 H     361  UNL361      0.0241
   2889 CL         22.1949   18.7315   35.3401 Cl    362  UNL362     -0.1257
   2890 C          20.6524   17.8498   35.3401 C.3   362  UNL362      0.0198
   2891 C          19.4879   18.8176   35.3401 C.3   362  UNL362     -0.0517
   2892 H          20.6278   17.2127   34.4515 H     362  UNL362      0.0427
   2893 H          20.6278   17.2127   36.2286 H     362  UNL362      0.0427
   2894 H          18.5410   18.2683   35.3401 H     362  UNL362      0.0241
   2895 H          19.5052   19.4588   36.2275 H     362  UNL362      0.0241
   2896 H          19.5052   19.4588   34.4527 H     362  UNL362      0.0241
   2897 CL         24.4111   -1.0267    1.8317 Cl    363  UNL363     -0.1257
   2898 C          23.3343    0.1509    1.0504 C.3   363  UNL363      0.0198
   2899 C          23.1921    1.3906    1.9080 C.3   363  UNL363     -0.0517
   2900 H          23.7591    0.4007    0.0741 H     363  UNL363      0.0427
   2901 H          22.3636   -0.3290    0.8975 H     363  UNL363      0.0427
   2902 H          22.5278    2.1118    1.4212 H     363  UNL363      0.0241
   2903 H          22.7666    1.1486    2.8874 H     363  UNL363      0.0241
   2904 H          24.1603    1.8773    2.0650 H     363  UNL363      0.0241
   2905 CL         26.6849    1.9105    7.5068 Cl    364  UNL364     -0.1257
   2906 C          25.6854    0.4417    7.5068 C.3   364  UNL364      0.0198
   2907 C          24.2144    0.8007    7.5068 C.3   364  UNL364     -0.0517
   2908 H          25.9427   -0.1417    6.6182 H     364  UNL364      0.0427
   2909 H          25.9427   -0.1417    8.3953 H     364  UNL364      0.0427
   2910 H          23.6043   -0.1082    7.5068 H     364  UNL364      0.0241
   2911 H          23.9487    1.3846    8.3942 H     364  UNL364      0.0241
   2912 H          23.9487    1.3846    6.6194 H     364  UNL364      0.0241
   2913 CL         27.0728   -0.8020   10.1385 Cl    365  UNL365     -0.1257
   2914 C          25.5303   -1.2105   10.9198 C.3   365  UNL365      0.0198
   2915 C          24.3658   -0.7621   10.0622 C.3   365  UNL365     -0.0517
   2916 H          25.5057   -2.2932   11.0727 H     365  UNL365      0.0427
   2917 H          25.5057   -0.7184   11.8961 H     365  UNL365      0.0427
   2918 H          23.4189   -1.0166   10.5490 H     365  UNL365      0.0241
   2919 H          24.3831    0.3214    9.9052 H     365  UNL365      0.0241
   2920 H          24.3831   -1.2513    9.0828 H     365  UNL365      0.0241
   2921 CL         26.7624    2.6578   13.6282 Cl    366  UNL366     -0.1257
   2922 C          26.7498    0.9237   13.2415 C.3   366  UNL366      0.0198
   2923 C          25.4395    0.2948   13.6660 C.3   366  UNL366     -0.0517
   2924 H          26.9005    0.8172   12.1635 H     366  UNL366      0.0427
   2925 H          27.5911    0.4560   13.7606 H     366  UNL366      0.0427
   2926 H          25.4382   -0.7731   13.4251 H     366  UNL366      0.0241
   2927 H          25.2817    0.3968   14.7447 H     366  UNL366      0.0241
   2928 H          24.5920    0.7575   13.1497 H     366  UNL366      0.0241
   2929 CL         24.2501   -0.9505   16.4432 Cl    367  UNL367     -0.1257
   2930 C          22.7540    0.0079   16.4432 C.3   367  UNL367      0.0198
   2931 C          23.0720    1.4882   16.4432 C.3   367  UNL367     -0.0517
   2932 H          22.1780   -0.2656   15.5546 H     367  UNL367      0.0427
   2933 H          22.1780   -0.2656   17.3317 H     367  UNL367      0.0427
   2934 H          22.1465    2.0728   16.4432 H     367  UNL367      0.0241
   2935 H          23.6482    1.7700   17.3306 H     367  UNL367      0.0241
   2936 H          23.6482    1.7700   15.5558 H     367  UNL367      0.0241
   2937 CL         27.0728   -1.1693   19.7177 Cl    368  UNL368     -0.1257
   2938 C          25.5303   -0.6662   18.9936 C.3   368  UNL368      0.0198
   2939 C          24.3658   -1.2184   19.7884 C.3   368  UNL368     -0.0517
   2940 H          25.5057    0.4271   18.9774 H     368  UNL368      0.0427
   2941 H          25.5057   -1.0324   17.9634 H     368  UNL368      0.0427
   2942 H          23.4189   -0.9050   19.3373 H     368  UNL368      0.0241
   2943 H          24.3831   -2.3130   19.8087 H     368  UNL368      0.0241
   2944 H          24.3831   -0.8555   20.8213 H     368  UNL368      0.0241
   2945 CL         27.0486    1.0707   22.3967 Cl    369  UNL369     -0.1257
   2946 C          25.5061    0.1890   22.3967 C.3   369  UNL369      0.0198
   2947 C          24.3416    1.1568   22.3967 C.3   369  UNL369     -0.0517
   2948 H          25.4815   -0.4481   21.5081 H     369  UNL369      0.0427
   2949 H          25.4815   -0.4481   23.2852 H     369  UNL369      0.0427
   2950 H          23.3947    0.6075   22.3967 H     369  UNL369      0.0241
   2951 H          24.3589    1.7980   23.2841 H     369  UNL369      0.0241
   2952 H          24.3589    1.7980   21.5093 H     369  UNL369      0.0241
   2953 CL         27.7065   -0.6114   25.4037 Cl    370  UNL370     -0.1257
   2954 C          26.1640   -1.4931   25.4037 C.3   370  UNL370      0.0198
   2955 C          24.9995   -0.5253   25.4037 C.3   370  UNL370     -0.0517
   2956 H          26.1394   -2.1302   24.5151 H     370  UNL370      0.0427
   2957 H          26.1394   -2.1302   26.2922 H     370  UNL370      0.0427
   2958 H          24.0526   -1.0746   25.4037 H     370  UNL370      0.0241
   2959 H          25.0168    0.1159   26.2911 H     370  UNL370      0.0241
   2960 H          25.0168    0.1159   24.5163 H     370  UNL370      0.0241
   2961 CL         27.0728   -0.8020   28.0476 Cl    371  UNL371     -0.1257
   2962 C          25.5303   -1.2105   28.8289 C.3   371  UNL371      0.0198
   2963 C          24.3658   -0.7621   27.9713 C.3   371  UNL371     -0.0517
   2964 H          25.5057   -2.2932   28.9817 H     371  UNL371      0.0427
   2965 H          25.5057   -0.7184   29.8052 H     371  UNL371      0.0427
   2966 H          23.4189   -1.0166   28.4580 H     371  UNL371      0.0241
   2967 H          24.3831    0.3214   27.8143 H     371  UNL371      0.0241
   2968 H          24.3831   -1.2513   26.9919 H     371  UNL371      0.0241
   2969 CL         25.2565    1.0586   31.3573 Cl    372  UNL372     -0.1257
   2970 C          23.7140    0.1769   31.3573 C.3   372  UNL372      0.0198
   2971 C          22.5495    1.1447   31.3573 C.3   372  UNL372     -0.0517
   2972 H          23.6894   -0.4602   30.4687 H     372  UNL372      0.0427
   2973 H          23.6894   -0.4602   32.2458 H     372  UNL372      0.0427
   2974 H          21.6026    0.5954   31.3573 H     372  UNL372      0.0241
   2975 H          22.5668    1.7859   32.2447 H     372  UNL372      0.0241
   2976 H          22.5668    1.7859   30.4699 H     372  UNL372      0.0241
   2977 CL         27.0365    1.0586   35.3401 Cl    373  UNL373     -0.1257
   2978 C          25.4940    0.1769   35.3401 C.3   373  UNL373      0.0198
   2979 C          24.3295    1.1447   35.3401 C.3   373  UNL373     -0.0517
   2980 H          25.4694   -0.4602   34.4515 H     373  UNL373      0.0427
   2981 H          25.4694   -0.4602   36.2286 H     373  UNL373      0.0427
   2982 H          23.3826    0.5954   35.3401 H     373  UNL373      0.0241
   2983 H          24.3468    1.7859   36.2275 H     373  UNL373      0.0241
   2984 H          24.3468    1.7859   34.4527 H     373  UNL373      0.0241
   2985 CL         28.1465    3.8254    1.2444 Cl    374  UNL374     -0.1257
   2986 C          26.6040    4.3531    1.9508 C.3   374  UNL374      0.0198
   2987 C          25.4395    3.7739    1.1754 C.3   374  UNL374     -0.0517
   2988 H          26.5794    4.0225    2.9930 H     374  UNL374      0.0427
   2989 H          26.5794    5.4462    1.9295 H     374  UNL374      0.0427
   2990 H          24.4926    4.1026    1.6155 H     374  UNL374      0.0241
   2991 H          25.4568    4.1011    0.1307 H     374  UNL374      0.0241
   2992 H          25.4568    2.6792    1.1928 H     374  UNL374      0.0241
   2993 CL         27.0607    2.3932    4.5119 Cl    375  UNL375     -0.1257
   2994 C          25.5182    1.5115    4.5119 C.3   375  UNL375      0.0198
   2995 C          24.3537    2.4793    4.5119 C.3   375  UNL375     -0.0517
   2996 H          25.4936    0.8744    3.6233 H     375  UNL375      0.0427
   2997 H          25.4936    0.8744    5.4004 H     375  UNL375      0.0427
   2998 H          23.4068    1.9300    4.5119 H     375  UNL375      0.0241
   2999 H          24.3710    3.1205    5.3993 H     375  UNL375      0.0241
   3000 H          24.3710    3.1205    3.6245 H     375  UNL375      0.0241
   3001 CL         27.9265    3.8375    7.2101 Cl    376  UNL376     -0.1257
   3002 C          26.3840    4.3652    7.9165 C.3   376  UNL376      0.0198
   3003 C          25.2195    3.7860    7.1411 C.3   376  UNL376     -0.0517
   3004 H          26.3594    4.0346    8.9587 H     376  UNL376      0.0427
   3005 H          26.3594    5.4583    7.8951 H     376  UNL376      0.0427
   3006 H          24.2726    4.1147    7.5812 H     376  UNL376      0.0241
   3007 H          25.2368    4.1132    6.0963 H     376  UNL376      0.0241
   3008 H          25.2368    2.6913    7.1585 H     376  UNL376      0.0241
   3009 CL         27.0607    2.6132   10.4775 Cl    377  UNL377     -0.1257
   3010 C          25.5182    1.7315   10.4775 C.3   377  UNL377      0.0198
   3011 C          24.3537    2.6993   10.4775 C.3   377  UNL377     -0.0517
   3012 H          25.4936    1.0944    9.5889 H     377  UNL377      0.0427
   3013 H          25.4936    1.0944   11.3660 H     377  UNL377      0.0427
   3014 H          23.4068    2.1500   10.4775 H     377  UNL377      0.0241
   3015 H          24.3710    3.3405   11.3649 H     377  UNL377      0.0241
   3016 H          24.3710    3.3405    9.5901 H     377  UNL377      0.0241
   3017 CL         24.3601    2.3841   13.4603 Cl    378  UNL378     -0.1257
   3018 C          22.8640    3.3424   13.4603 C.3   378  UNL378      0.0198
   3019 C          23.1820    4.8228   13.4603 C.3   378  UNL378     -0.0517
   3020 H          22.2880    3.0690   12.5717 H     378  UNL378      0.0427
   3021 H          22.2880    3.0690   14.3488 H     378  UNL378      0.0427
   3022 H          22.2565    5.4074   13.4603 H     378  UNL378      0.0241
   3023 H          23.7582    5.1046   14.3477 H     378  UNL378      0.0241
   3024 H          23.7582    5.1046   12.5729 H     378  UNL378      0.0241
   3025 CL         27.0365    4.3932   16.4432 Cl    379  UNL379     -0.1257
   3026 C          25.4940    3.5115   16.4432 C.3   379  UNL379      0.0198
   3027 C          24.3295    4.4793   16.4432 C.3   379  UNL379     -0.0517
   3028 H          25.4694    2.8744   15.5546 H     379  UNL379      0.0427
   3029 H          25.4694    2.8744   17.3317 H     379  UNL379      0.0427
   3030 H          23.3826    3.9300   16.4432 H     379  UNL379      0.0241
   3031 H          24.3468    5.1205   17.3306 H     379  UNL379      0.0241
   3032 H          24.3468    5.1205   15.5558 H     379  UNL379      0.0241
   3033 CL         27.0607    2.3932   19.4260 Cl    380  UNL380     -0.1257
   3034 C          25.5182    1.5115   19.4260 C.3   380  UNL380      0.0198
   3035 C          24.3537    2.4793   19.4260 C.3   380  UNL380     -0.0517
   3036 H          25.4936    0.8744   18.5374 H     380  UNL380      0.0427
   3037 H          25.4936    0.8744   20.3145 H     380  UNL380      0.0427
   3038 H          23.4068    1.9300   19.4260 H     380  UNL380      0.0241
   3039 H          24.3710    3.1205   20.3134 H     380  UNL380      0.0241
   3040 H          24.3710    3.1205   18.5386 H     380  UNL380      0.0241
   3041 CL         27.0728    4.4053   22.4088 Cl    381  UNL381     -0.1257
   3042 C          25.5303    3.5236   22.4088 C.3   381  UNL381      0.0198
   3043 C          24.3658    4.4914   22.4088 C.3   381  UNL381     -0.0517
   3044 H          25.5057    2.8865   21.5202 H     381  UNL381      0.0427
   3045 H          25.5057    2.8865   23.2973 H     381  UNL381      0.0427
   3046 H          23.4189    3.9421   22.4088 H     381  UNL381      0.0241
   3047 H          24.3831    5.1326   23.2962 H     381  UNL381      0.0241
   3048 H          24.3831    5.1326   21.5214 H     381  UNL381      0.0241
   3049 CL         24.4112    2.3321   25.0768 Cl    382  UNL382     -0.1257
   3050 C          23.3344    3.5096   25.8582 C.3   382  UNL382      0.0198
   3051 C          23.1922    4.7494   25.0005 C.3   382  UNL382     -0.0517
   3052 H          22.3635    3.0298   26.0110 H     382  UNL382      0.0427
   3053 H          23.7591    3.7595   26.8345 H     382  UNL382      0.0427
   3054 H          22.5278    5.4706   25.4873 H     382  UNL382      0.0241
   3055 H          24.1603    5.2361   24.8435 H     382  UNL382      0.0241
   3056 H          22.7666    4.5073   24.0211 H     382  UNL382      0.0241
   3057 CL         25.6684    2.0926   26.4222 Cl    383  UNL383     -0.1257
   3058 C          25.6461    1.6841   28.1511 C.3   383  UNL383      0.0198
   3059 C          24.3465    2.1325   28.7857 C.3   383  UNL383     -0.0517
   3060 H          25.7701    0.6014   28.2437 H     383  UNL383      0.0427
   3061 H          26.4998    2.1762   28.6253 H     383  UNL383      0.0427
   3062 H          24.3391    1.8780   29.8503 H     383  UNL383      0.0241
   3063 H          24.2153    3.2160   28.6976 H     383  UNL383      0.0241
   3064 H          23.4866    1.6432   28.3165 H     383  UNL383      0.0241
   3065 CL         25.3665    4.3932   31.3573 Cl    384  UNL384     -0.1257
   3066 C          23.8240    3.5115   31.3573 C.3   384  UNL384      0.0198
   3067 C          22.6595    4.4793   31.3573 C.3   384  UNL384     -0.0517
   3068 H          23.7994    2.8744   30.4687 H     384  UNL384      0.0427
   3069 H          23.7994    2.8744   32.2458 H     384  UNL384      0.0427
   3070 H          21.7126    3.9300   31.3573 H     384  UNL384      0.0241
   3071 H          22.6768    5.1205   32.2447 H     384  UNL384      0.0241
   3072 H          22.6768    5.1205   30.4699 H     384  UNL384      0.0241
   3073 CL         27.0365    4.3932   35.3401 Cl    385  UNL385     -0.1257
   3074 C          25.4940    3.5115   35.3401 C.3   385  UNL385      0.0198
   3075 C          24.3295    4.4793   35.3401 C.3   385  UNL385     -0.0517
   3076 H          25.4694    2.8744   34.4515 H     385  UNL385      0.0427
   3077 H          25.4694    2.8744   36.2286 H     385  UNL385      0.0427
   3078 H          23.3826    3.9300   35.3401 H     385  UNL385      0.0241
   3079 H          24.3468    5.1205   36.2275 H     385  UNL385      0.0241
   3080 H          24.3468    5.1205   34.4527 H     385  UNL385      0.0241
   3081 CL         27.0607    7.7278   -0.6910 Cl    386  UNL386     -0.1257
   3082 C          25.5182    6.8461   -0.6910 C.3   386  UNL386      0.0198
   3083 C          24.3537    7.8139   -0.6910 C.3   386  UNL386     -0.0517
   3084 H          25.4936    6.2090   -1.5796 H     386  UNL386      0.0427
   3085 H          25.4936    6.2090    0.1975 H     386  UNL386      0.0427
   3086 H          23.4068    7.2646   -0.6910 H     386  UNL386      0.0241
   3087 H          24.3710    8.4551    0.1964 H     386  UNL386      0.0241
   3088 H          24.3710    8.4551   -1.5784 H     386  UNL386      0.0241
   3089 CL         24.0530    6.5001    1.1966 Cl    387  UNL387     -0.1257
   3090 C          24.2697    7.3173    2.7593 C.3   387  UNL387      0.0198
   3091 C          25.7420    7.4812    3.0727 C.3   387  UNL387     -0.0517
   3092 H          23.7740    8.2905    2.7028 H     387  UNL387      0.0427
   3093 H          23.7740    6.7157    3.5263 H     387  UNL387      0.0427
   3094 H          25.8686    7.9850    4.0363 H     387  UNL387      0.0241
   3095 H          26.2453    6.5106    3.1316 H     387  UNL387      0.0241
   3096 H          26.2453    8.0833    2.3092 H     387  UNL387      0.0241
   3097 CL         27.0365    9.3978    7.4947 Cl    388  UNL388     -0.1257
   3098 C          25.4940    8.5161    7.4947 C.3   388  UNL388      0.0198
   3099 C          24.3295    9.4839    7.4947 C.3   388  UNL388     -0.0517
   3100 H          25.4694    7.8790    6.6061 H     388  UNL388      0.0427
   3101 H          25.4694    7.8790    8.3832 H     388  UNL388      0.0427
   3102 H          23.3826    8.9346    7.4947 H     388  UNL388      0.0241
   3103 H          24.3468   10.1251    8.3821 H     388  UNL388      0.0241
   3104 H          24.3468   10.1251    6.6073 H     388  UNL388      0.0241
   3105 CL         27.0486    7.7036   10.4533 Cl    389  UNL389     -0.1257
   3106 C          25.5061    6.8219   10.4533 C.3   389  UNL389      0.0198
   3107 C          24.3416    7.7897   10.4533 C.3   389  UNL389     -0.0517
   3108 H          25.4815    6.1848    9.5647 H     389  UNL389      0.0427
   3109 H          25.4815    6.1848   11.3418 H     389  UNL389      0.0427
   3110 H          23.3947    7.2404   10.4533 H     389  UNL389      0.0241
   3111 H          24.3589    8.4309   11.3407 H     389  UNL389      0.0241
   3112 H          24.3589    8.4309    9.5659 H     389  UNL389      0.0241
   3113 CL         28.3665    6.9811   13.4437 Cl    390  UNL390     -0.1257
   3114 C          26.8240    7.8626   13.4249 C.3   390  UNL390      0.0198
   3115 C          25.6595    6.8950   13.4455 C.3   390  UNL390     -0.0517
   3116 H          26.7994    8.5184   14.2998 H     390  UNL390      0.0427
   3117 H          26.7994    8.4807   12.5231 H     390  UNL390      0.0427
   3118 H          24.7126    7.4442   13.4338 H     390  UNL390      0.0241
   3119 H          25.6768    6.2352   12.5719 H     390  UNL390      0.0241
   3120 H          25.6768    6.2728   14.3463 H     390  UNL390      0.0241
   3121 CL         27.0365    7.7278   16.4553 Cl    391  UNL391     -0.1257
   3122 C          25.4940    6.8461   16.4553 C.3   391  UNL391      0.0198
   3123 C          24.3295    7.8139   16.4553 C.3   391  UNL391     -0.0517
   3124 H          25.4694    6.2090   15.5667 H     391  UNL391      0.0427
   3125 H          25.4694    6.2090   17.3438 H     391  UNL391      0.0427
   3126 H          23.3826    7.2646   16.4553 H     391  UNL391      0.0241
   3127 H          24.3468    8.4551   17.3427 H     391  UNL391      0.0241
   3128 H          24.3468    8.4551   15.5679 H     391  UNL391      0.0241
   3129 CL         27.0365    5.6178   19.4260 Cl    392  UNL392     -0.1257
   3130 C          25.4940    4.7361   19.4260 C.3   392  UNL392      0.0198
   3131 C          24.3295    5.7039   19.4260 C.3   392  UNL392     -0.0517
   3132 H          25.4694    4.0990   18.5374 H     392  UNL392      0.0427
   3133 H          25.4694    4.0990   20.3145 H     392  UNL392      0.0427
   3134 H          23.3826    5.1546   19.4260 H     392  UNL392      0.0241
   3135 H          24.3468    6.3451   20.3134 H     392  UNL392      0.0241
   3136 H          24.3468    6.3451   18.5386 H     392  UNL392      0.0241
   3137 CL         27.0486    7.7399   22.4088 Cl    393  UNL393     -0.1257
   3138 C          25.5061    6.8582   22.4088 C.3   393  UNL393      0.0198
   3139 C          24.3416    7.8260   22.4088 C.3   393  UNL393     -0.0517
   3140 H          25.4815    6.2211   21.5202 H     393  UNL393      0.0427
   3141 H          25.4815    6.2211   23.2973 H     393  UNL393      0.0427
   3142 H          23.3947    7.2767   22.4088 H     393  UNL393      0.0241
   3143 H          24.3589    8.4672   23.2962 H     393  UNL393      0.0241
   3144 H          24.3589    8.4672   21.5214 H     393  UNL393      0.0241
   3145 CL         28.0365    7.7278   25.3916 Cl    394  UNL394     -0.1257
   3146 C          26.4940    6.8461   25.3916 C.3   394  UNL394      0.0198
   3147 C          25.3295    7.8139   25.3916 C.3   394  UNL394     -0.0517
   3148 H          26.4694    6.2090   24.5030 H     394  UNL394      0.0427
   3149 H          26.4694    6.2090   26.2801 H     394  UNL394      0.0427
   3150 H          24.3826    7.2646   25.3916 H     394  UNL394      0.0241
   3151 H          25.3468    8.4551   26.2790 H     394  UNL394      0.0241
   3152 H          25.3468    8.4551   24.5042 H     394  UNL394      0.0241
   3153 CL         27.0486    5.3978   28.3745 Cl    395  UNL395     -0.1257
   3154 C          25.5061    4.5161   28.3745 C.3   395  UNL395      0.0198
   3155 C          24.3416    5.4839   28.3745 C.3   395  UNL395     -0.0517
   3156 H          25.4815    3.8790   27.4859 H     395  UNL395      0.0427
   3157 H          25.4815    3.8790   29.2630 H     395  UNL395      0.0427
   3158 H          23.3947    4.9346   28.3745 H     395  UNL395      0.0241
   3159 H          24.3589    6.1251   29.2619 H     395  UNL395      0.0241
   3160 H          24.3589    6.1251   27.4871 H     395  UNL395      0.0241
   3161 CL         24.1912    8.1202   32.9556 Cl    396  UNL396     -0.1257
   3162 C          23.1144    8.0900   31.5427 C.3   396  UNL396      0.0198
   3163 C          22.9722    6.6783   31.0139 C.3   396  UNL396     -0.0517
   3164 H          22.1435    8.4893   31.8496 H     396  UNL396      0.0427
   3165 H          23.5391    8.7492   30.7805 H     396  UNL396      0.0427
   3166 H          22.3078    6.6666   30.1439 H     396  UNL396      0.0241
   3167 H          23.9403    6.2716   30.7038 H     396  UNL396      0.0241
   3168 H          22.5466    6.0121   31.7715 H     396  UNL396      0.0241
   3169 CL         27.0728    7.5614   34.6549 Cl    397  UNL397     -0.1257
   3170 C          25.5303    7.1528   33.8736 C.3   397  UNL397      0.0198
   3171 C          24.3658    7.6013   34.7312 C.3   397  UNL397     -0.0517
   3172 H          25.5057    7.6450   32.8972 H     397  UNL397      0.0427
   3173 H          25.5057    6.0702   33.7207 H     397  UNL397      0.0427
   3174 H          23.4189    7.3467   34.2444 H     397  UNL397      0.0241
   3175 H          24.3831    7.1120   35.7106 H     397  UNL397      0.0241
   3176 H          24.3831    8.6848   34.8882 H     397  UNL397      0.0241
   3177 CL         28.0365   10.4945    1.8136 Cl    398  UNL398     -0.1257
   3178 C          26.4940   11.0222    1.1072 C.3   398  UNL398      0.0198
   3179 C          25.3295   10.4430    1.8826 C.3   398  UNL398     -0.0517
   3180 H          26.4694   12.1154    1.1286 H     398  UNL398      0.0427
   3181 H          26.4694   10.6917    0.0651 H     398  UNL398      0.0427
   3182 H          24.3826   10.7718    1.4425 H     398  UNL398      0.0241
   3183 H          25.3468    9.3483    1.8652 H     398  UNL398      0.0241
   3184 H          25.3468   10.7702    2.9274 H     398  UNL398      0.0241
   3185 CL         27.0728   11.0745    4.5361 Cl    399  UNL399     -0.1257
   3186 C          25.5303   10.1928    4.5361 C.3   399  UNL399      0.0198
   3187 C          24.3658   11.1606    4.5361 C.3   399  UNL399     -0.0517
   3188 H          25.5057    9.5557    3.6475 H     399  UNL399      0.0427
   3189 H          25.5057    9.5557    5.4246 H     399  UNL399      0.0427
   3190 H          23.4189   10.6113    4.5361 H     399  UNL399      0.0241
   3191 H          24.3831   11.8018    5.4235 H     399  UNL399      0.0241
   3192 H          24.3831   11.8018    3.6487 H     399  UNL399      0.0241
   3193 CL         27.0244   12.9524    7.4947 Cl    400  UNL400     -0.1257
   3194 C          25.4819   12.0707    7.4947 C.3   400  UNL400      0.0198
   3195 C          24.3174   13.0385    7.4947 C.3   400  UNL400     -0.0517
   3196 H          25.4573   11.4336    6.6061 H     400  UNL400      0.0427
   3197 H          25.4573   11.4336    8.3832 H     400  UNL400      0.0427
   3198 H          23.3705   12.4892    7.4947 H     400  UNL400      0.0241
   3199 H          24.3347   13.6797    8.3821 H     400  UNL400      0.0241
   3200 H          24.3347   13.6797    6.6073 H     400  UNL400      0.0241
   3201 CL         27.0728   11.0987   10.4533 Cl    401  UNL401     -0.1257
   3202 C          25.5303   10.2170   10.4533 C.3   401  UNL401      0.0198
   3203 C          24.3658   11.1848   10.4533 C.3   401  UNL401     -0.0517
   3204 H          25.5057    9.5799    9.5647 H     401  UNL401      0.0427
   3205 H          25.5057    9.5799   11.3418 H     401  UNL401      0.0427
   3206 H          23.4189   10.6355   10.4533 H     401  UNL401      0.0241
   3207 H          24.3831   11.8260   11.3407 H     401  UNL401      0.0241
   3208 H          24.3831   11.8260    9.5659 H     401  UNL401      0.0241
   3209 CL         24.0288    9.8589   11.8513 Cl    402  UNL402     -0.1257
   3210 C          24.2455   10.6760   13.4140 C.3   402  UNL402      0.0198
   3211 C          25.7178   10.8400   13.7275 C.3   402  UNL402     -0.0517
   3212 H          23.7498   11.6493   13.3576 H     402  UNL402      0.0427
   3213 H          23.7498   10.0745   14.1811 H     402  UNL402      0.0427
   3214 H          25.8444   11.3438   14.6911 H     402  UNL402      0.0241
   3215 H          26.2211    9.8694   13.7864 H     402  UNL402      0.0241
   3216 H          26.2211   11.4421   12.9640 H     402  UNL402      0.0241
   3217 CL         27.0486   11.0745   16.4432 Cl    403  UNL403     -0.1257
   3218 C          25.5061   10.1928   16.4432 C.3   403  UNL403      0.0198
   3219 C          24.3416   11.1606   16.4432 C.3   403  UNL403     -0.0517
   3220 H          25.4815    9.5557   15.5546 H     403  UNL403      0.0427
   3221 H          25.4815    9.5557   17.3317 H     403  UNL403      0.0427
   3222 H          23.3947   10.6113   16.4432 H     403  UNL403      0.0241
   3223 H          24.3589   11.8018   17.3306 H     403  UNL403      0.0241
   3224 H          24.3589   11.8018   15.5558 H     403  UNL403      0.0241
   3225 CL         27.0607    8.9524   19.4260 Cl    404  UNL404     -0.1257
   3226 C          25.5182    8.0707   19.4260 C.3   404  UNL404      0.0198
   3227 C          24.3537    9.0385   19.4260 C.3   404  UNL404     -0.0517
   3228 H          25.4936    7.4336   18.5374 H     404  UNL404      0.0427
   3229 H          25.4936    7.4336   20.3145 H     404  UNL404      0.0427
   3230 H          23.4068    8.4892   19.4260 H     404  UNL404      0.0241
   3231 H          24.3710    9.6797   20.3134 H     404  UNL404      0.0241
   3232 H          24.3710    9.6797   18.5386 H     404  UNL404      0.0241
   3233 CL         27.0728   11.0624   22.4088 Cl    405  UNL405     -0.1257
   3234 C          25.5303   10.1807   22.4088 C.3   405  UNL405      0.0198
   3235 C          24.3658   11.1485   22.4088 C.3   405  UNL405     -0.0517
   3236 H          25.5057    9.5436   21.5202 H     405  UNL405      0.0427
   3237 H          25.5057    9.5436   23.2973 H     405  UNL405      0.0427
   3238 H          23.4189   10.5992   22.4088 H     405  UNL405      0.0241
   3239 H          24.3831   11.7897   23.2962 H     405  UNL405      0.0241
   3240 H          24.3831   11.7897   21.5214 H     405  UNL405      0.0241
   3241 CL         28.2565   11.0624   25.3916 Cl    406  UNL406     -0.1257
   3242 C          26.7140   10.1807   25.3916 C.3   406  UNL406      0.0198
   3243 C          25.5495   11.1485   25.3916 C.3   406  UNL406     -0.0517
   3244 H          26.6894    9.5436   24.5030 H     406  UNL406      0.0427
   3245 H          26.6894    9.5436   26.2801 H     406  UNL406      0.0427
   3246 H          24.6026   10.5992   25.3916 H     406  UNL406      0.0241
   3247 H          25.5668   11.7897   26.2790 H     406  UNL406      0.0241
   3248 H          25.5668   11.7897   24.5042 H     406  UNL406      0.0241
   3249 CL         27.0365    8.7324   28.3745 Cl    407  UNL407     -0.1257
   3250 C          25.4940    7.8507   28.3745 C.3   407  UNL407      0.0198
   3251 C          24.3295    8.8185   28.3745 C.3   407  UNL407     -0.0517
   3252 H          25.4694    7.2136   27.4859 H     407  UNL407      0.0427
   3253 H          25.4694    7.2136   29.2630 H     407  UNL407      0.0427
   3254 H          23.3826    8.2692   28.3745 H     407  UNL407      0.0241
   3255 H          24.3468    9.4597   29.2619 H     407  UNL407      0.0241
   3256 H          24.3468    9.4597   27.4871 H     407  UNL407      0.0241
   3257 CL         28.1465   10.7539   31.7197 Cl    408  UNL408     -0.1257
   3258 C          26.6040   10.6079   30.8502 C.3   408  UNL408      0.0198
   3259 C          25.4395   10.7681   31.8046 C.3   408  UNL408     -0.0517
   3260 H          26.5794   11.3787   30.0747 H     408  UNL408      0.0427
   3261 H          26.5794    9.6261   30.3690 H     408  UNL408      0.0427
   3262 H          24.4926   10.6772   31.2629 H     408  UNL408      0.0241
   3263 H          25.4568    9.9991   32.5839 H     408  UNL408      0.0241
   3264 H          25.4568   11.7494   32.2900 H     408  UNL408      0.0241
   3265 CL         27.0365   11.0624   35.3401 Cl    409  UNL409     -0.1257
   3266 C          25.4940   10.1807   35.3401 C.3   409  UNL409      0.0198
   3267 C          24.3295   11.1485   35.3401 C.3   409  UNL409     -0.0517
   3268 H          25.4694    9.5436   34.4515 H     409  UNL409      0.0427
   3269 H          25.4694    9.5436   36.2286 H     409  UNL409      0.0427
   3270 H          23.3826   10.5992   35.3401 H     409  UNL409      0.0241
   3271 H          24.3468   11.7897   36.2275 H     409  UNL409      0.0241
   3272 H          24.3468   11.7897   34.4527 H     409  UNL409      0.0241
   3273 CL         27.0365   14.3969    1.5290 Cl    410  UNL410     -0.1257
   3274 C          25.4940   13.5152    1.5290 C.3   410  UNL410      0.0198
   3275 C          24.3295   14.4830    1.5290 C.3   410  UNL410     -0.0517
   3276 H          25.4694   12.8781    0.6404 H     410  UNL410      0.0427
   3277 H          25.4694   12.8781    2.4175 H     410  UNL410      0.0427
   3278 H          23.3826   13.9337    1.5290 H     410  UNL410      0.0241
   3279 H          24.3468   15.1242    2.4164 H     410  UNL410      0.0241
   3280 H          24.3468   15.1242    0.6416 H     410  UNL410      0.0241
   3281 CL         27.7065   14.3178    4.6448 Cl    411  UNL411     -0.1257
   3282 C          26.1640   13.5425    4.2248 C.3   411  UNL411      0.0198
   3283 C          24.9995   14.3935    4.6858 C.3   411  UNL411     -0.0517
   3284 H          26.1394   13.4056    3.1400 H     411  UNL411      0.0427
   3285 H          26.1394   12.5591    4.7026 H     411  UNL411      0.0427
   3286 H          24.0526   13.9105    4.4241 H     411  UNL411      0.0241
   3287 H          25.0168   14.5346    5.7714 H     411  UNL411      0.0241
   3288 H          25.0168   15.3799    4.2109 H     411  UNL411      0.0241
   3289 CL         27.0002   16.0669    7.4947 Cl    412  UNL412     -0.1257
   3290 C          25.4577   15.1852    7.4947 C.3   412  UNL412      0.0198
   3291 C          24.2932   16.1530    7.4947 C.3   412  UNL412     -0.0517
   3292 H          25.4331   14.5481    6.6061 H     412  UNL412      0.0427
   3293 H          25.4331   14.5481    8.3832 H     412  UNL412      0.0427
   3294 H          23.3463   15.6037    7.4947 H     412  UNL412      0.0241
   3295 H          24.3105   16.7942    8.3821 H     412  UNL412      0.0241
   3296 H          24.3105   16.7942    6.6073 H     412  UNL412      0.0241
   3297 CL         27.0728   14.4211   10.4775 Cl    413  UNL413     -0.1257
   3298 C          25.5303   13.5394   10.4775 C.3   413  UNL413      0.0198
   3299 C          24.3658   14.5072   10.4775 C.3   413  UNL413     -0.0517
   3300 H          25.5057   12.9023    9.5889 H     413  UNL413      0.0427
   3301 H          25.5057   12.9023   11.3660 H     413  UNL413      0.0427
   3302 H          23.4189   13.9579   10.4775 H     413  UNL413      0.0241
   3303 H          24.3831   15.1484   11.3649 H     413  UNL413      0.0241
   3304 H          24.3831   15.1484    9.5901 H     413  UNL413      0.0241
   3305 CL         28.0365   13.8291   13.1636 Cl    414  UNL414     -0.1257
   3306 C          26.4940   14.3568   13.8700 C.3   414  UNL414      0.0198
   3307 C          25.3295   13.7776   13.0946 C.3   414  UNL414     -0.0517
   3308 H          26.4694   14.0262   14.9122 H     414  UNL414      0.0427
   3309 H          26.4694   15.4499   13.8487 H     414  UNL414      0.0427
   3310 H          24.3826   14.1063   13.5347 H     414  UNL414      0.0241
   3311 H          25.3468   14.1048   12.0499 H     414  UNL414      0.0241
   3312 H          25.3468   12.6829   13.1120 H     414  UNL414      0.0241
   3313 CL         27.0607   14.4211   16.4432 Cl    415  UNL415     -0.1257
   3314 C          25.5182   13.5394   16.4432 C.3   415  UNL415      0.0198
   3315 C          24.3537   14.5072   16.4432 C.3   415  UNL415     -0.0517
   3316 H          25.4936   12.9023   15.5546 H     415  UNL415      0.0427
   3317 H          25.4936   12.9023   17.3317 H     415  UNL415      0.0427
   3318 H          23.4068   13.9579   16.4432 H     415  UNL415      0.0241
   3319 H          24.3710   15.1484   17.3306 H     415  UNL415      0.0241
   3320 H          24.3710   15.1484   15.5558 H     415  UNL415      0.0241
   3321 CL         27.0486   12.2869   19.4260 Cl    416  UNL416     -0.1257
   3322 C          25.5061   11.4052   19.4260 C.3   416  UNL416      0.0198
   3323 C          24.3416   12.3730   19.4260 C.3   416  UNL416     -0.0517
   3324 H          25.4815   10.7681   18.5374 H     416  UNL416      0.0427
   3325 H          25.4815   10.7681   20.3145 H     416  UNL416      0.0427
   3326 H          23.3947   11.8237   19.4260 H     416  UNL416      0.0241
   3327 H          24.3589   13.0142   20.3134 H     416  UNL416      0.0241
   3328 H          24.3589   13.0142   18.5386 H     416  UNL416      0.0241
   3329 CL         27.0365   14.4090   22.4088 Cl    417  UNL417     -0.1257
   3330 C          25.4940   13.5273   22.4088 C.3   417  UNL417      0.0198
   3331 C          24.3295   14.4951   22.4088 C.3   417  UNL417     -0.0517
   3332 H          25.4694   12.8902   21.5202 H     417  UNL417      0.0427
   3333 H          25.4694   12.8902   23.2973 H     417  UNL417      0.0427
   3334 H          23.3826   13.9458   22.4088 H     417  UNL417      0.0241
   3335 H          24.3468   15.1363   23.2962 H     417  UNL417      0.0241
   3336 H          24.3468   15.1363   21.5214 H     417  UNL417      0.0241
   3337 CL         28.1465   14.3969   25.3916 Cl    418  UNL418     -0.1257
   3338 C          26.6040   13.5152   25.3916 C.3   418  UNL418      0.0198
   3339 C          25.4395   14.4830   25.3916 C.3   418  UNL418     -0.0517
   3340 H          26.5794   12.8781   24.5030 H     418  UNL418      0.0427
   3341 H          26.5794   12.8781   26.2801 H     418  UNL418      0.0427
   3342 H          24.4926   13.9337   25.3916 H     418  UNL418      0.0241
   3343 H          25.4568   15.1242   26.2790 H     418  UNL418      0.0241
   3344 H          25.4568   15.1242   24.5042 H     418  UNL418      0.0241
   3345 CL         27.0365   12.2869   28.3624 Cl    419  UNL419     -0.1257
   3346 C          25.4940   11.4052   28.3624 C.3   419  UNL419      0.0198
   3347 C          24.3295   12.3730   28.3624 C.3   419  UNL419     -0.0517
   3348 H          25.4694   10.7681   27.4738 H     419  UNL419      0.0427
   3349 H          25.4694   10.7681   29.2509 H     419  UNL419      0.0427
   3350 H          23.3826   11.8237   28.3624 H     419  UNL419      0.0241
   3351 H          24.3468   13.0142   29.2498 H     419  UNL419      0.0241
   3352 H          24.3468   13.0142   27.4750 H     419  UNL419      0.0241
   3353 CL         27.0486   14.2184   31.6721 Cl    420  UNL420     -0.1257
   3354 C          25.5061   13.8099   30.8907 C.3   420  UNL420      0.0198
   3355 C          24.3416   14.2583   31.7484 C.3   420  UNL420     -0.0517
   3356 H          25.4815   14.3021   29.9144 H     420  UNL420      0.0427
   3357 H          25.4815   12.7273   30.7379 H     420  UNL420      0.0427
   3358 H          23.3947   14.0038   31.2616 H     420  UNL420      0.0241
   3359 H          24.3589   13.7690   32.7278 H     420  UNL420      0.0241
   3360 H          24.3589   15.3418   31.9054 H     420  UNL420      0.0241
   3361 CL         27.0365   14.3969   35.3401 Cl    421  UNL421     -0.1257
   3362 C          25.4940   13.5152   35.3401 C.3   421  UNL421      0.0198
   3363 C          24.3295   14.4830   35.3401 C.3   421  UNL421     -0.0517
   3364 H          25.4694   12.8781   34.4515 H     421  UNL421      0.0427
   3365 H          25.4694   12.8781   36.2286 H     421  UNL421      0.0427
   3366 H          23.3826   13.9337   35.3401 H     421  UNL421      0.0241
   3367 H          24.3468   15.1242   36.2275 H     421  UNL421      0.0241
   3368 H          24.3468   15.1242   34.4527 H     421  UNL421      0.0241
   3369 CL         28.0365   17.7315    1.5290 Cl    422  UNL422     -0.1257
   3370 C          26.4940   16.8498    1.5290 C.3   422  UNL422      0.0198
   3371 C          25.3295   17.8176    1.5290 C.3   422  UNL422     -0.0517
   3372 H          26.4694   16.2127    0.6404 H     422  UNL422      0.0427
   3373 H          26.4694   16.2127    2.4175 H     422  UNL422      0.0427
   3374 H          24.3826   17.2683    1.5290 H     422  UNL422      0.0241
   3375 H          25.3468   18.4588    2.4164 H     422  UNL422      0.0241
   3376 H          25.3468   18.4588    0.6416 H     422  UNL422      0.0241
   3377 CL         23.5339   18.8952    4.5240 Cl    423  UNL423     -0.1257
   3378 C          25.1381   18.1315    4.5240 C.3   423  UNL423      0.0198
   3379 C          25.0077   16.6230    4.5240 C.3   423  UNL423     -0.0517
   3380 H          25.6753   18.4748    3.6354 H     423  UNL423      0.0427
   3381 H          25.6753   18.4748    5.4125 H     423  UNL423      0.0427
   3382 H          25.9991   16.1588    4.5240 H     423  UNL423      0.0241
   3383 H          24.4712   16.2713    5.4114 H     423  UNL423      0.0241
   3384 H          24.4712   16.2713    3.6366 H     423  UNL423      0.0241
   3385 CL         27.0728   18.6215    7.4947 Cl    424  UNL424     -0.1257
   3386 C          25.5303   17.7398    7.4947 C.3   424  UNL424      0.0198
   3387 C          24.3658   18.7076    7.4947 C.3   424  UNL424     -0.0517
   3388 H          25.5057   17.1027    6.6061 H     424  UNL424      0.0427
   3389 H          25.5057   17.1027    8.3832 H     424  UNL424      0.0427
   3390 H          23.4189   18.1583    7.4947 H     424  UNL424      0.0241
   3391 H          24.3831   19.3488    8.3821 H     424  UNL424      0.0241
   3392 H          24.3831   19.3488    6.6073 H     424  UNL424      0.0241
   3393 CL         28.3665   18.7315   10.4775 Cl    425  UNL425     -0.1257
   3394 C          26.8240   17.8498   10.4775 C.3   425  UNL425      0.0198
   3395 C          25.6595   18.8176   10.4775 C.3   425  UNL425     -0.0517
   3396 H          26.7994   17.2127    9.5889 H     425  UNL425      0.0427
   3397 H          26.7994   17.2127   11.3660 H     425  UNL425      0.0427
   3398 H          24.7126   18.2683   10.4775 H     425  UNL425      0.0241
   3399 H          25.6768   19.4588   11.3649 H     425  UNL425      0.0241
   3400 H          25.6768   19.4588    9.5901 H     425  UNL425      0.0241
   3401 CL         27.0365   17.7315   13.4603 Cl    426  UNL426     -0.1257
   3402 C          25.4940   16.8498   13.4603 C.3   426  UNL426      0.0198
   3403 C          24.3295   17.8176   13.4603 C.3   426  UNL426     -0.0517
   3404 H          25.4694   16.2127   12.5717 H     426  UNL426      0.0427
   3405 H          25.4694   16.2127   14.3488 H     426  UNL426      0.0427
   3406 H          23.3826   17.2683   13.4603 H     426  UNL426      0.0241
   3407 H          24.3468   18.4588   14.3477 H     426  UNL426      0.0241
   3408 H          24.3468   18.4588   12.5729 H     426  UNL426      0.0241
   3409 CL         28.1465   18.7315   16.4432 Cl    427  UNL427     -0.1257
   3410 C          26.6040   17.8498   16.4432 C.3   427  UNL427      0.0198
   3411 C          25.4395   18.8176   16.4432 C.3   427  UNL427     -0.0517
   3412 H          26.5794   17.2127   15.5546 H     427  UNL427      0.0427
   3413 H          26.5794   17.2127   17.3317 H     427  UNL427      0.0427
   3414 H          24.4926   18.2683   16.4432 H     427  UNL427      0.0241
   3415 H          25.4568   19.4588   17.3306 H     427  UNL427      0.0241
   3416 H          25.4568   19.4588   15.5558 H     427  UNL427      0.0241
   3417 CL         28.0365   15.7315   19.4260 Cl    428  UNL428     -0.1257
   3418 C          26.4940   14.8498   19.4260 C.3   428  UNL428      0.0198
   3419 C          25.3295   15.8176   19.4260 C.3   428  UNL428     -0.0517
   3420 H          26.4694   14.2127   18.5374 H     428  UNL428      0.0427
   3421 H          26.4694   14.2127   20.3145 H     428  UNL428      0.0427
   3422 H          24.3826   15.2683   19.4260 H     428  UNL428      0.0241
   3423 H          25.3468   16.4588   20.3134 H     428  UNL428      0.0241
   3424 H          25.3468   16.4588   18.5386 H     428  UNL428      0.0241
   3425 CL         28.0365   18.7315   22.4088 Cl    429  UNL429     -0.1257
   3426 C          26.4940   17.8498   22.4088 C.3   429  UNL429      0.0198
   3427 C          25.3295   18.8176   22.4088 C.3   429  UNL429     -0.0517
   3428 H          26.4694   17.2127   21.5202 H     429  UNL429      0.0427
   3429 H          26.4694   17.2127   23.2973 H     429  UNL429      0.0427
   3430 H          24.3826   18.2683   22.4088 H     429  UNL429      0.0241
   3431 H          25.3468   19.4588   23.2962 H     429  UNL429      0.0241
   3432 H          25.3468   19.4588   21.5214 H     429  UNL429      0.0241
   3433 CL         28.0365   17.7315   25.3916 Cl    430  UNL430     -0.1257
   3434 C          26.4940   16.8498   25.3916 C.3   430  UNL430      0.0198
   3435 C          25.3295   17.8176   25.3916 C.3   430  UNL430     -0.0517
   3436 H          26.4694   16.2127   24.5030 H     430  UNL430      0.0427
   3437 H          26.4694   16.2127   26.2801 H     430  UNL430      0.0427
   3438 H          24.3826   17.2683   25.3916 H     430  UNL430      0.0241
   3439 H          25.3468   18.4588   26.2790 H     430  UNL430      0.0241
   3440 H          25.3468   18.4588   24.5042 H     430  UNL430      0.0241
   3441 CL         28.0365   18.7315   28.3745 Cl    431  UNL431     -0.1257
   3442 C          26.4940   17.8498   28.3745 C.3   431  UNL431      0.0198
   3443 C          25.3295   18.8176   28.3745 C.3   431  UNL431     -0.0517
   3444 H          26.4694   17.2127   27.4859 H     431  UNL431      0.0427
   3445 H          26.4694   17.2127   29.2630 H     431  UNL431      0.0427
   3446 H          24.3826   18.2683   28.3745 H     431  UNL431      0.0241
   3447 H          25.3468   19.4588   29.2619 H     431  UNL431      0.0241
   3448 H          25.3468   19.4588   27.4871 H     431  UNL431      0.0241
   3449 CL         28.0365   17.7315   31.3573 Cl    432  UNL432     -0.1257
   3450 C          26.4940   16.8498   31.3573 C.3   432  UNL432      0.0198
   3451 C          25.3295   17.8176   31.3573 C.3   432  UNL432     -0.0517
   3452 H          26.4694   16.2127   30.4687 H     432  UNL432      0.0427
   3453 H          26.4694   16.2127   32.2458 H     432  UNL432      0.0427
   3454 H          24.3826   17.2683   31.3573 H     432  UNL432      0.0241
   3455 H          25.3468   18.4588   32.2447 H     432  UNL432      0.0241
   3456 H          25.3468   18.4588   30.4699 H     432  UNL432      0.0241
   3457 CL         27.0486   17.5409   34.0253 Cl    433  UNL433     -0.1257
   3458 C          25.5061   17.1324   34.8066 C.3   433  UNL433      0.0198
   3459 C          24.3416   17.5808   33.9490 C.3   433  UNL433     -0.0517
   3460 H          25.4815   16.0497   34.9595 H     433  UNL433      0.0427
   3461 H          25.4815   17.6245   35.7829 H     433  UNL433      0.0427
   3462 H          23.3947   17.3263   34.4358 H     433  UNL433      0.0241
   3463 H          24.3589   18.6643   33.7920 H     433  UNL433      0.0241
   3464 H          24.3589   17.0915   32.9696 H     433  UNL433      0.0241
@<TRIPOS>BOND
     1     1     2    1
     2     2     3    1
     3     2     4    1
     4     2     5    1
     5     3     6    1
     6     3     7    1
     7     3     8    1
     8     9    10    1
     9    10    11    1
    10    10    12    1
    11    10    13    1
    12    11    14    1
    13    11    15    1
    14    11    16    1
    15    17    18    1
    16    18    19    1
    17    18    20    1
    18    18    21    1
    19    19    22    1
    20    19    23    1
    21    19    24    1
    22    25    26    1
    23    26    27    1
    24    26    28    1
    25    26    29    1
    26    27    30    1
    27    27    31    1
    28    27    32    1
    29    33    34    1
    30    34    35    1
    31    34    36    1
    32    34    37    1
    33    35    38    1
    34    35    39    1
    35    35    40    1
    36    41    42    1
    37    42    43    1
    38    42    44    1
    39    42    45    1
    40    43    46    1
    41    43    47    1
    42    43    48    1
    43    49    50    1
    44    50    51    1
    45    50    52    1
    46    50    53    1
    47    51    54    1
    48    51    55    1
    49    51    56    1
    50    57    58    1
    51    58    59    1
    52    58    60    1
    53    58    61    1
    54    59    62    1
    55    59    63    1
    56    59    64    1
    57    65    66    1
    58    66    67    1
    59    66    68    1
    60    66    69    1
    61    67    70    1
    62    67    71    1
    63    67    72    1
    64    73    74    1
    65    74    75    1
    66    74    76    1
    67    74    77    1
    68    75    78    1
    69    75    79    1
    70    75    80    1
    71    81    82    1
    72    82    83    1
    73    82    84    1
    74    82    85    1
    75    83    86    1
    76    83    87    1
    77    83    88    1
    78    89    90    1
    79    90    91    1
    80    90    92    1
    81    90    93    1
    82    91    94    1
    83    91    95    1
    84    91    96    1
    85    97    98    1
    86    98    99    1
    87    98   100    1
    88    98   101    1
    89    99   102    1
    90    99   103    1
    91    99   104    1
    92   105   106    1
    93   106   107    1
    94   106   108    1
    95   106   109    1
    96   107   110    1
    97   107   111    1
    98   107   112    1
    99   113   114    1
   100   114   115    1
   101   114   116    1
   102   114   117    1
   103   115   118    1
   104   115   119    1
   105   115   120    1
   106   121   122    1
   107   122   123    1
   108   122   124    1
   109   122   125    1
   110   123   126    1
   111   123   127    1
   112   123   128    1
   113   129   130    1
   114   130   131    1
   115   130   132    1
   116   130   133    1
   117   131   134    1
   118   131   135    1
   119   131   136    1
   120   137   138    1
   121   138   139    1
   122   138   140    1
   123   138   141    1
   124   139   142    1
   125   139   143    1
   126   139   144    1
   127   145   146    1
   128   146   147    1
   129   146   148    1
   130   146   149    1
   131   147   150    1
   132   147   151    1
   133   147   152    1
   134   153   154    1
   135   154   155    1
   136   154   156    1
   137   154   157    1
   138   155   158    1
   139   155   159    1
   140   155   160    1
   141   161   162    1
   142   162   163    1
   143   162   164    1
   144   162   165    1
   145   163   166    1
   146   163   167    1
   147   163   168    1
   148   169   170    1
   149   170   171    1
   150   170   172    1
   151   170   173    1
   152   171   174    1
   153   171   175    1
   154   171   176    1
   155   177   178    1
   156   178   179    1
   157   178   180    1
   158   178   181    1
   159   179   182    1
   160   179   183    1
   161   179   184    1
   162   185   186    1
   163   186   187    1
   164   186   188    1
   165   186   189    1
   166   187   190    1
   167   187   191    1
   168   187   192    1
   169   193   194    1
   170   194   195    1
   171   194   196    1
   172   194   197    1
   173   195   198    1
   174   195   199    1
   175   195   200    1
   176   201   202    1
   177   202   203    1
   178   202   204    1
   179   202   205    1
   180   203   206    1
   181   203   207    1
   182   203   208    1
   183   209   210    1
   184   210   211    1
   185   210   212    1
   186   210   213    1
   187   211   214    1
   188   211   215    1
   189   211   216    1
   190   217   218    1
   191   218   219    1
   192   218   220    1
   193   218   221    1
   194   219   222    1
   195   219   223    1
   196   219   224    1
   197   225   226    1
   198   226   227    1
   199   226   228    1
   200   226   229    1
   201   227   230    1
   202   227   231    1
   203   227   232    1
   204   233   234    1
   205   234   235    1
   206   234   236    1
   207   234   237    1
   208   235   238    1
   209   235   239    1
   210   235   240    1
   211   241   242    1
   212   242   243    1
   213   242   244    1
   214   242   245    1
   215   243   246    1
   216   243   247    1
   217   243   248    1
   218   249   250    1
   219   250   251    1
   220   250   252    1
   221   250   253    1
   222   251   254    1
   223   251   255    1
   224   251   256    1
   225   257   258    1
   226   258   259    1
   227   258   260    1
   228   258   261    1
   229   259   262    1
   230   259   263    1
   231   259   264    1
   232   265   266    1
   233   266   267    1
   234   266   268    1
   235   266   269    1
   236   267   270    1
   237   267   271    1
   238   267   272    1
   239   273   274    1
   240   274   275    1
   241   274   276    1
   242   274   277    1
   243   275   278    1
   244   275   279    1
   245   275   280    1
   246   281   282    1
   247   282   283    1
   248   282   284    1
   249   282   285    1
   250   283   286    1
   251   283   287    1
   252   283   288    1
   253   289   290    1
   254   290   291    1
   255   290   292    1
   256   290   293    1
   257   291   294    1
   258   291   295    1
   259   291   296    1
   260   297   298    1
   261   298   299    1
   262   298   300    1
   263   298   301    1
   264   299   302    1
   265   299   303    1
   266   299   304    1
   267   305   306    1
   268   306   307    1
   269   306   308    1
   270   306   309    1
   271   307   310    1
   272   307   311    1
   273   307   312    1
   274   313   314    1
   275   314   315    1
   276   314   316    1
   277   314   317    1
   278   315   318    1
   279   315   319    1
   280   315   320    1
   281   321   322    1
   282   322   323    1
   283   322   324    1
   284   322   325    1
   285   323   326    1
   286   323   327    1
   287   323   328    1
   288   329   330    1
   289   330   331    1
   290   330   332    1
   291   330   333    1
   292   331   334    1
   293   331   335    1
   294   331   336    1
   295   337   338    1
   296   338   339    1
   297   338   340    1
   298   338   341    1
   299   339   342    1
   300   339   343    1
   301   339   344    1
   302   345   346    1
   303   346   347    1
   304   346   348    1
   305   346   349    1
   306   347   350    1
   307   347   351    1
   308   347   352    1
   309   353   354    1
   310   354   355    1
   311   354   356    1
   312   354   357    1
   313   355   358    1
   314   355   359    1
   315   355   360    1
   316   361   362    1
   317   362   363    1
   318   362   364    1
   319   362   365    1
   320   363   366    1
   321   363   367    1
   322   363   368    1
   323   369   370    1
   324   370   371    1
   325   370   372    1
   326   370   373    1
   327   371   374    1
   328   371   375    1
   329   371   376    1
   330   377   378    1
   331   378   379    1
   332   378   380    1
   333   378   381    1
   334   379   382    1
   335   379   383    1
   336   379   384    1
   337   385   386    1
   338   386   387    1
   339   386   388    1
   340   386   389    1
   341   387   390    1
   342   387   391    1
   343   387   392    1
   344   393   394    1
   345   394   395    1
   346   394   396    1
   347   394   397    1
   348   395   398    1
   349   395   399    1
   350   395   400    1
   351   401   402    1
   352   402   403    1
   353   402   404    1
   354   402   405    1
   355   403   406    1
   356   403   407    1
   357   403   408    1
   358   409   410    1
   359   410   411    1
   360   410   412    1
   361   410   413    1
   362   411   414    1
   363   411   415    1
   364   411   416    1
   365   417   418    1
   366   418   419    1
   367   418   420    1
   368   418   421    1
   369   419   422    1
   370   419   423    1
   371   419   424    1
   372   425   426    1
   373   426   427    1
   374   426   428    1
   375   426   429    1
   376   427   430    1
   377   427   431    1
   378   427   432    1
   379   433   434    1
   380   434   435    1
   381   434   436    1
   382   434   437    1
   383   435   438    1
   384   435   439    1
   385   435   440    1
   386   441   442    1
   387   442   443    1
   388   442   444    1
   389   442   445    1
   390   443   446    1
   391   443   447    1
   392   443   448    1
   393   449   450    1
   394   450   451    1
   395   450   452    1
   396   450   453    1
   397   451   454    1
   398   451   455    1
   399   451   456    1
   400   457   458    1
   401   458   459    1
   402   458   460    1
   403   458   461    1
   404   459   462    1
   405   459   463    1
   406   459   464    1
   407   465   466    1
   408   466   467    1
   409   466   468    1
   410   466   469    1
   411   467   470    1
   412   467   471    1
   413   467   472    1
   414   473   474    1
   415   474   475    1
   416   474   476    1
   417   474   477    1
   418   475   478    1
   419   475   479    1
   420   475   480    1
   421   481   482    1
   422   482   483    1
   423   482   484    1
   424   482   485    1
   425   483   486    1
   426   483   487    1
   427   483   488    1
   428   489   490    1
   429   490   491    1
   430   490   492    1
   431   490   493    1
   432   491   494    1
   433   491   495    1
   434   491   496    1
   435   497   498    1
   436   498   499    1
   437   498   500    1
   438   498   501    1
   439   499   502    1
   440   499   503    1
   441   499   504    1
   442   505   506    1
   443   506   507    1
   444   506   508    1
   445   506   509    1
   446   507   510    1
   447   507   511    1
   448   507   512    1
   449   513   514    1
   450   514   515    1
   451   514   516    1
   452   514   517    1
   453   515   518    1
   454   515   519    1
   455   515   520    1
   456   521   522    1
   457   522   523    1
   458   522   524    1
   459   522   525    1
   460   523   526    1
   461   523   527    1
   462   523   528    1
   463   529   530    1
   464   530   531    1
   465   530   532    1
   466   530   533    1
   467   531   534    1
   468   531   535    1
   469   531   536    1
   470   537   538    1
   471   538   539    1
   472   538   540    1
   473   538   541    1
   474   539   542    1
   475   539   543    1
   476   539   544    1
   477   545   546    1
   478   546   547    1
   479   546   548    1
   480   546   549    1
   481   547   550    1
   482   547   551    1
   483   547   552    1
   484   553   554    1
   485   554   555    1
   486   554   556    1
   487   554   557    1
   488   555   558    1
   489   555   559    1
   490   555   560    1
   491   561   562    1
   492   562   563    1
   493   562   564    1
   494   562   565    1
   495   563   566    1
   496   563   567    1
   497   563   568    1
   498   569   570    1
   499   570   571    1
   500   570   572    1
   501   570   573    1
   502   571   574    1
   503   571   575    1
   504   571   576    1
   505   577   578    1
   506   578   579    1
   507   578   580    1
   508   578   581    1
   509   579   582    1
   510   579   583    1
   511   579   584    1
   512   585   586    1
   513   586   587    1
   514   586   588    1
   515   586   589    1
   516   587   590    1
   517   587   591    1
   518   587   592    1
   519   593   594    1
   520   594   595    1
   521   594   596    1
   522   594   597    1
   523   595   598    1
   524   595   599    1
   525   595   600    1
   526   601   602    1
   527   602   603    1
   528   602   604    1
   529   602   605    1
   530   603   606    1
   531   603   607    1
   532   603   608    1
   533   609   610    1
   534   610   611    1
   535   610   612    1
   536   610   613    1
   537   611   614    1
   538   611   615    1
   539   611   616    1
   540   617   618    1
   541   618   619    1
   542   618   620    1
   543   618   621    1
   544   619   622    1
   545   619   623    1
   546   619   624    1
   547   625   626    1
   548   626   627    1
   549   626   628    1
   550   626   629    1
   551   627   630    1
   552   627   631    1
   553   627   632    1
   554   633   634    1
   555   634   635    1
   556   634   636    1
   557   634   637    1
   558   635   638    1
   559   635   639    1
   560   635   640    1
   561   641   642    1
   562   642   643    1
   563   642   644    1
   564   642   645    1
   565   643   646    1
   566   643   647    1
   567   643   648    1
   568   649   650    1
   569   650   651    1
   570   650   652    1
   571   650   653    1
   572   651   654    1
   573   651   655    1
   574   651   656    1
   575   657   658    1
   576   658   659    1
   577   658   660    1
   578   658   661    1
   579   659   662    1
   580   659   663    1
   581   659   664    1
   582   665   666    1
   583   666   667    1
   584   666   668    1
   585   666   669    1
   586   667   670    1
   587   667   671    1
   588   667   672    1
   589   673   674    1
   590   674   675    1
   591   674   676    1
   592   674   677    1
   593   675   678    1
   594   675   679    1
   595   675   680    1
   596   681   682    1
   597   682   683    1
   598   682   684    1
   599   682   685    1
   600   683   686    1
   601   683   687    1
   602   683   688    1
   603   689   690    1
   604   690   691    1
   605   690   692    1
   606   690   693    1
   607   691   694    1
   608   691   695    1
   609   691   696    1
   610   697   698    1
   611   698   699    1
   612   698   700    1
   613   698   701    1
   614   699   702    1
   615   699   703    1
   616   699   704    1
   617   705   706    1
   618   706   707    1
   619   706   708    1
   620   706   709    1
   621   707   710    1
   622   707   711    1
   623   707   712    1
   624   713   714    1
   625   714   715    1
   626   714   716    1
   627   714   717    1
   628   715   718    1
   629   715   719    1
   630   715   720    1
   631   721   722    1
   632   722   723    1
   633   722   724    1
   634   722   725    1
   635   723   726    1
   636   723   727    1
   637   723   728    1
   638   729   730    1
   639   730   731    1
   640   730   732    1
   641   730   733    1
   642   731   734    1
   643   731   735    1
   644   731   736    1
   645   737   738    1
   646   738   739    1
   647   738   740    1
   648   738   741    1
   649   739   742    1
   650   739   743    1
   651   739   744    1
   652   745   746    1
   653   746   747    1
   654   746   748    1
   655   746   749    1
   656   747   750    1
   657   747   751    1
   658   747   752    1
   659   753   754    1
   660   754   755    1
   661   754   756    1
   662   754   757    1
   663   755   758    1
   664   755   759    1
   665   755   760    1
   666   761   762    1
   667   762   763    1
   668   762   764    1
   669   762   765    1
   670   763   766    1
   671   763   767    1
   672   763   768    1
   673   769   770    1
   674   770   771    1
   675   770   772    1
   676   770   773    1
   677   771   774    1
   678   771   775    1
   679   771   776    1
   680   777   778    1
   681   778   779    1
   682   778   780    1
   683   778   781    1
   684   779   782    1
   685   779   783    1
   686   779   784    1
   687   785   786    1
   688   786   787    1
   689   786   788    1
   690   786   789    1
   691   787   790    1
   692   787   791    1
   693   787   792    1
   694   793   794    1
   695   794   795    1
   696   794   796    1
   697   794   797    1
   698   795   798    1
   699   795   799    1
   700   795   800    1
   701   801   802    1
   702   802   803    1
   703   802   804    1
   704   802   805    1
   705   803   806    1
   706   803   807    1
   707   803   808    1
   708   809   810    1
   709   810   811    1
   710   810   812    1
   711   810   813    1
   712   811   814    1
   713   811   815    1
   714   811   816    1
   715   817   818    1
   716   818   819    1
   717   818   820    1
   718   818   821    1
   719   819   822    1
   720   819   823    1
   721   819   824    1
   722   825   826    1
   723   826   827    1
   724   826   828    1
   725   826   829    1
   726   827   830    1
   727   827   831    1
   728   827   832    1
   729   833   834    1
   730   834   835    1
   731   834   836    1
   732   834   837    1
   733   835   838    1
   734   835   839    1
   735   835   840    1
   736   841   842    1
   737   842   843    1
   738   842   844    1
   739   842   845    1
   740   843   846    1
   741   843   847    1
   742   843   848    1
   743   849   850    1
   744   850   851    1
   745   850   852    1
   746   850   853    1
   747   851   854    1
   748   851   855    1
   749   851   856    1
   750   857   858    1
   751   858   859    1
   752   858   860    1
   753   858   861    1
   754   859   862    1
   755   859   863    1
   756   859   864    1
   757   865   866    1
   758   866   867    1
   759   866   868    1
   760   866   869    1
   761   867   870    1
   762   867   871    1
   763   867   872    1
   764   873   874    1
   765   874   875    1
   766   874   876    1
   767   874   877    1
   768   875   878    1
   769   875   879    1
   770   875   880    1
   771   881   882    1
   772   882   883    1
   773   882   884    1
   774   882   885    1
   775   883   886    1
   776   883   887    1
   777   883   888    1
   778   889   890    1
   779   890   891    1
   780   890   892    1
   781   890   893    1
   782   891   894    1
   783   891   895    1
   784   891   896    1
   785   897   898    1
   786   898   899    1
   787   898   900    1
   788   898   901    1
   789   899   902    1
   790   899   903    1
   791   899   904    1
   792   905   906    1
   793   906   907    1
   794   906   908    1
   795   906   909    1
   796   907   910    1
   797   907   911    1
   798   907   912    1
   799   913   914    1
   800   914   915    1
   801   914   916    1
   802   914   917    1
   803   915   918    1
   804   915   919    1
   805   915   920    1
   806   921   922    1
   807   922   923    1
   808   922   924    1
   809   922   925    1
   810   923   926    1
   811   923   927    1
   812   923   928    1
   813   929   930    1
   814   930   931    1
   815   930   932    1
   816   930   933    1
   817   931   934    1
   818   931   935    1
   819   931   936    1
   820   937   938    1
   821   938   939    1
   822   938   940    1
   823   938   941    1
   824   939   942    1
   825   939   943    1
   826   939   944    1
   827   945   946    1
   828   946   947    1
   829   946   948    1
   830   946   949    1
   831   947   950    1
   832   947   951    1
   833   947   952    1
   834   953   954    1
   835   954   955    1
   836   954   956    1
   837   954   957    1
   838   955   958    1
   839   955   959    1
   840   955   960    1
   841   961   962    1
   842   962   963    1
   843   962   964    1
   844   962   965    1
   845   963   966    1
   846   963   967    1
   847   963   968    1
   848   969   970    1
   849   970   971    1
   850   970   972    1
   851   970   973    1
   852   971   974    1
   853   971   975    1
   854   971   976    1
   855   977   978    1
   856   978   979    1
   857   978   980    1
   858   978   981    1
   859   979   982    1
   860   979   983    1
   861   979   984    1
   862   985   986    1
   863   986   987    1
   864   986   988    1
   865   986   989    1
   866   987   990    1
   867   987   991    1
   868   987   992    1
   869   993   994    1
   870   994   995    1
   871   994   996    1
   872   994   997    1
   873   995   998    1
   874   995   999    1
   875   995  1000    1
   876  1001  1002    1
   877  1002  1003    1
   878  1002  1004    1
   879  1002  1005    1
   880  1003  1006    1
   881  1003  1007    1
   882  1003  1008    1
   883  1009  1010    1
   884  1010  1011    1
   885  1010  1012    1
   886  1010  1013    1
   887  1011  1014    1
   888  1011  1015    1
   889  1011  1016    1
   890  1017  1018    1
   891  1018  1019    1
   892  1018  1020    1
   893  1018  1021    1
   894  1019  1022    1
   895  1019  1023    1
   896  1019  1024    1
   897  1025  1026    1
   898  1026  1027    1
   899  1026  1028    1
   900  1026  1029    1
   901  1027  1030    1
   902  1027  1031    1
   903  1027  1032    1
   904  1033  1034    1
   905  1034  1035    1
   906  1034  1036    1
   907  1034  1037    1
   908  1035  1038    1
   909  1035  1039    1
   910  1035  1040    1
   911  1041  1042    1
   912  1042  1043    1
   913  1042  1044    1
   914  1042  1045    1
   915  1043  1046    1
   916  1043  1047    1
   917  1043  1048    1
   918  1049  1050    1
   919  1050  1051    1
   920  1050  1052    1
   921  1050  1053    1
   922  1051  1054    1
   923  1051  1055    1
   924  1051  1056    1
   925  1057  1058    1
   926  1058  1059    1
   927  1058  1060    1
   928  1058  1061    1
   929  1059  1062    1
   930  1059  1063    1
   931  1059  1064    1
   932  1065  1066    1
   933  1066  1067    1
   934  1066  1068    1
   935  1066  1069    1
   936  1067  1070    1
   937  1067  1071    1
   938  1067  1072    1
   939  1073  1074    1
   940  1074  1075    1
   941  1074  1076    1
   942  1074  1077    1
   943  1075  1078    1
   944  1075  1079    1
   945  1075  1080    1
   946  1081  1082    1
   947  1082  1083    1
   948  1082  1084    1
   949  1082  1085    1
   950  1083  1086    1
   951  1083  1087    1
   952  1083  1088    1
   953  1089  1090    1
   954  1090  1091    1
   955  1090  1092    1
   956  1090  1093    1
   957  1091  1094    1
   958  1091  1095    1
   959  1091  1096    1
   960  1097  1098    1
   961  1098  1099    1
   962  1098  1100    1
   963  1098  1101    1
   964  1099  1102    1
   965  1099  1103    1
   966  1099  1104    1
   967  1105  1106    1
   968  1106  1107    1
   969  1106  1108    1
   970  1106  1109    1
   971  1107  1110    1
   972  1107  1111    1
   973  1107  1112    1
   974  1113  1114    1
   975  1114  1115    1
   976  1114  1116    1
   977  1114  1117    1
   978  1115  1118    1
   979  1115  1119    1
   980  1115  1120    1
   981  1121  1122    1
   982  1122  1123    1
   983  1122  1124    1
   984  1122  1125    1
   985  1123  1126    1
   986  1123  1127    1
   987  1123  1128    1
   988  1129  1130    1
   989  1130  1131    1
   990  1130  1132    1
   991  1130  1133    1
   992  1131  1134    1
   993  1131  1135    1
   994  1131  1136    1
   995  1137  1138    1
   996  1138  1139    1
   997  1138  1140    1
   998  1138  1141    1
   999  1139  1142    1
  1000  1139  1143    1
  1001  1139  1144    1
  1002  1145  1146    1
  1003  1146  1147    1
  1004  1146  1148    1
  1005  1146  1149    1
  1006  1147  1150    1
  1007  1147  1151    1
  1008  1147  1152    1
  1009  1153  1154    1
  1010  1154  1155    1
  1011  1154  1156    1
  1012  1154  1157    1
  1013  1155  1158    1
  1014  1155  1159    1
  1015  1155  1160    1
  1016  1161  1162    1
  1017  1162  1163    1
  1018  1162  1164    1
  1019  1162  1165    1
  1020  1163  1166    1
  1021  1163  1167    1
  1022  1163  1168    1
  1023  1169  1170    1
  1024  1170  1171    1
  1025  1170  1172    1
  1026  1170  1173    1
  1027  1171  1174    1
  1028  1171  1175    1
  1029  1171  1176    1
  1030  1177  1178    1
  1031  1178  1179    1
  1032  1178  1180    1
  1033  1178  1181    1
  1034  1179  1182    1
  1035  1179  1183    1
  1036  1179  1184    1
  1037  1185  1186    1
  1038  1186  1187    1
  1039  1186  1188    1
  1040  1186  1189    1
  1041  1187  1190    1
  1042  1187  1191    1
  1043  1187  1192    1
  1044  1193  1194    1
  1045  1194  1195    1
  1046  1194  1196    1
  1047  1194  1197    1
  1048  1195  1198    1
  1049  1195  1199    1
  1050  1195  1200    1
  1051  1201  1202    1
  1052  1202  1203    1
  1053  1202  1204    1
  1054  1202  1205    1
  1055  1203  1206    1
  1056  1203  1207    1
  1057  1203  1208    1
  1058  1209  1210    1
  1059  1210  1211    1
  1060  1210  1212    1
  1061  1210  1213    1
  1062  1211  1214    1
  1063  1211  1215    1
  1064  1211  1216    1
  1065  1217  1218    1
  1066  1218  1219    1
  1067  1218  1220    1
  1068  1218  1221    1
  1069  1219  1222    1
  1070  1219  1223    1
  1071  1219  1224    1
  1072  1225  1226    1
  1073  1226  1227    1
  1074  1226  1228    1
  1075  1226  1229    1
  1076  1227  1230    1
  1077  1227  1231    1
  1078  1227  1232    1
  1079  1233  1234    1
  1080  1234  1235    1
  1081  1234  1236    1
  1082  1234  1237    1
  1083  1235  1238    1
  1084  1235  1239    1
  1085  1235  1240    1
  1086  1241  1242    1
  1087  1242  1243    1
  1088  1242  1244    1
  1089  1242  1245    1
  1090  1243  1246    1
  1091  1243  1247    1
  1092  1243  1248    1
  1093  1249  1250    1
  1094  1250  1251    1
  1095  1250  1252    1
  1096  1250  1253    1
  1097  1251  1254    1
  1098  1251  1255    1
  1099  1251  1256    1
  1100  1257  1258    1
  1101  1258  1259    1
  1102  1258  1260    1
  1103  1258  1261    1
  1104  1259  1262    1
  1105  1259  1263    1
  1106  1259  1264    1
  1107  1265  1266    1
  1108  1266  1267    1
  1109  1266  1268    1
  1110  1266  1269    1
  1111  1267  1270    1
  1112  1267  1271    1
  1113  1267  1272    1
  1114  1273  1274    1
  1115  1274  1275    1
  1116  1274  1276    1
  1117  1274  1277    1
  1118  1275  1278    1
  1119  1275  1279    1
  1120  1275  1280    1
  1121  1281  1282    1
  1122  1282  1283    1
  1123  1282  1284    1
  1124  1282  1285    1
  1125  1283  1286    1
  1126  1283  1287    1
  1127  1283  1288    1
  1128  1289  1290    1
  1129  1290  1291    1
  1130  1290  1292    1
  1131  1290  1293    1
  1132  1291  1294    1
  1133  1291  1295    1
  1134  1291  1296    1
  1135  1297  1298    1
  1136  1298  1299    1
  1137  1298  1300    1
  1138  1298  1301    1
  1139  1299  1302    1
  1140  1299  1303    1
  1141  1299  1304    1
  1142  1305  1306    1
  1143  1306  1307    1
  1144  1306  1308    1
  1145  1306  1309    1
  1146  1307  1310    1
  1147  1307  1311    1
  1148  1307  1312    1
  1149  1313  1314    1
  1150  1314  1315    1
  1151  1314  1316    1
  1152  1314  1317    1
  1153  1315  1318    1
  1154  1315  1319    1
  1155  1315  1320    1
  1156  1321  1322    1
  1157  1322  1323    1
  1158  1322  1324    1
  1159  1322  1325    1
  1160  1323  1326    1
  1161  1323  1327    1
  1162  1323  1328    1
  1163  1329  1330    1
  1164  1330  1331    1
  1165  1330  1332    1
  1166  1330  1333    1
  1167  1331  1334    1
  1168  1331  1335    1
  1169  1331  1336    1
  1170  1337  1338    1
  1171  1338  1339    1
  1172  1338  1340    1
  1173  1338  1341    1
  1174  1339  1342    1
  1175  1339  1343    1
  1176  1339  1344    1
  1177  1345  1346    1
  1178  1346  1347    1
  1179  1346  1348    1
  1180  1346  1349    1
  1181  1347  1350    1
  1182  1347  1351    1
  1183  1347  1352    1
  1184  1353  1354    1
  1185  1354  1355    1
  1186  1354  1356    1
  1187  1354  1357    1
  1188  1355  1358    1
  1189  1355  1359    1
  1190  1355  1360    1
  1191  1361  1362    1
  1192  1362  1363    1
  1193  1362  1364    1
  1194  1362  1365    1
  1195  1363  1366    1
  1196  1363  1367    1
  1197  1363  1368    1
  1198  1369  1370    1
  1199  1370  1371    1
  1200  1370  1372    1
  1201  1370  1373    1
  1202  1371  1374    1
  1203  1371  1375    1
  1204  1371  1376    1
  1205  1377  1378    1
  1206  1378  1379    1
  1207  1378  1380    1
  1208  1378  1381    1
  1209  1379  1382    1
  1210  1379  1383    1
  1211  1379  1384    1
  1212  1385  1386    1
  1213  1386  1387    1
  1214  1386  1388    1
  1215  1386  1389    1
  1216  1387  1390    1
  1217  1387  1391    1
  1218  1387  1392    1
  1219  1393  1394    1
  1220  1394  1395    1
  1221  1394  1396    1
  1222  1394  1397    1
  1223  1395  1398    1
  1224  1395  1399    1
  1225  1395  1400    1
  1226  1401  1402    1
  1227  1402  1403    1
  1228  1402  1404    1
  1229  1402  1405    1
  1230  1403  1406    1
  1231  1403  1407    1
  1232  1403  1408    1
  1233  1409  1410    1
  1234  1410  1411    1
  1235  1410  1412    1
  1236  1410  1413    1
  1237  1411  1414    1
  1238  1411  1415    1
  1239  1411  1416    1
  1240  1417  1418    1
  1241  1418  1419    1
  1242  1418  1420    1
  1243  1418  1421    1
  1244  1419  1422    1
  1245  1419  1423    1
  1246  1419  1424    1
  1247  1425  1426    1
  1248  1426  1427    1
  1249  1426  1428    1
  1250  1426  1429    1
  1251  1427  1430    1
  1252  1427  1431    1
  1253  1427  1432    1
  1254  1433  1434    1
  1255  1434  1435    1
  1256  1434  1436    1
  1257  1434  1437    1
  1258  1435  1438    1
  1259  1435  1439    1
  1260  1435  1440    1
  1261  1441  1442    1
  1262  1442  1443    1
  1263  1442  1444    1
  1264  1442  1445    1
  1265  1443  1446    1
  1266  1443  1447    1
  1267  1443  1448    1
  1268  1449  1450    1
  1269  1450  1451    1
  1270  1450  1452    1
  1271  1450  1453    1
  1272  1451  1454    1
  1273  1451  1455    1
  1274  1451  1456    1
  1275  1457  1458    1
  1276  1458  1459    1
  1277  1458  1460    1
  1278  1458  1461    1
  1279  1459  1462    1
  1280  1459  1463    1
  1281  1459  1464    1
  1282  1465  1466    1
  1283  1466  1467    1
  1284  1466  1468    1
  1285  1466  1469    1
  1286  1467  1470    1
  1287  1467  1471    1
  1288  1467  1472    1
  1289  1473  1474    1
  1290  1474  1475    1
  1291  1474  1476    1
  1292  1474  1477    1
  1293  1475  1478    1
  1294  1475  1479    1
  1295  1475  1480    1
  1296  1481  1482    1
  1297  1482  1483    1
  1298  1482  1484    1
  1299  1482  1485    1
  1300  1483  1486    1
  1301  1483  1487    1
  1302  1483  1488    1
  1303  1489  1490    1
  1304  1490  1491    1
  1305  1490  1492    1
  1306  1490  1493    1
  1307  1491  1494    1
  1308  1491  1495    1
  1309  1491  1496    1
  1310  1497  1498    1
  1311  1498  1499    1
  1312  1498  1500    1
  1313  1498  1501    1
  1314  1499  1502    1
  1315  1499  1503    1
  1316  1499  1504    1
  1317  1505  1506    1
  1318  1506  1507    1
  1319  1506  1508    1
  1320  1506  1509    1
  1321  1507  1510    1
  1322  1507  1511    1
  1323  1507  1512    1
  1324  1513  1514    1
  1325  1514  1515    1
  1326  1514  1516    1
  1327  1514  1517    1
  1328  1515  1518    1
  1329  1515  1519    1
  1330  1515  1520    1
  1331  1521  1522    1
  1332  1522  1523    1
  1333  1522  1524    1
  1334  1522  1525    1
  1335  1523  1526    1
  1336  1523  1527    1
  1337  1523  1528    1
  1338  1529  1530    1
  1339  1530  1531    1
  1340  1530  1532    1
  1341  1530  1533    1
  1342  1531  1534    1
  1343  1531  1535    1
  1344  1531  1536    1
  1345  1537  1538    1
  1346  1538  1539    1
  1347  1538  1540    1
  1348  1538  1541    1
  1349  1539  1542    1
  1350  1539  1543    1
  1351  1539  1544    1
  1352  1545  1546    1
  1353  1546  1547    1
  1354  1546  1548    1
  1355  1546  1549    1
  1356  1547  1550    1
  1357  1547  1551    1
  1358  1547  1552    1
  1359  1553  1554    1
  1360  1554  1555    1
  1361  1554  1556    1
  1362  1554  1557    1
  1363  1555  1558    1
  1364  1555  1559    1
  1365  1555  1560    1
  1366  1561  1562    1
  1367  1562  1563    1
  1368  1562  1564    1
  1369  1562  1565    1
  1370  1563  1566    1
  1371  1563  1567    1
  1372  1563  1568    1
  1373  1569  1570    1
  1374  1570  1571    1
  1375  1570  1572    1
  1376  1570  1573    1
  1377  1571  1574    1
  1378  1571  1575    1
  1379  1571  1576    1
  1380  1577  1578    1
  1381  1578  1579    1
  1382  1578  1580    1
  1383  1578  1581    1
  1384  1579  1582    1
  1385  1579  1583    1
  1386  1579  1584    1
  1387  1585  1586    1
  1388  1586  1587    1
  1389  1586  1588    1
  1390  1586  1589    1
  1391  1587  1590    1
  1392  1587  1591    1
  1393  1587  1592    1
  1394  1593  1594    1
  1395  1594  1595    1
  1396  1594  1596    1
  1397  1594  1597    1
  1398  1595  1598    1
  1399  1595  1599    1
  1400  1595  1600    1
  1401  1601  1602    1
  1402  1602  1603    1
  1403  1602  1604    1
  1404  1602  1605    1
  1405  1603  1606    1
  1406  1603  1607    1
  1407  1603  1608    1
  1408  1609  1610    1
  1409  1610  1611    1
  1410  1610  1612    1
  1411  1610  1613    1
  1412  1611  1614    1
  1413  1611  1615    1
  1414  1611  1616    1
  1415  1617  1618    1
  1416  1618  1619    1
  1417  1618  1620    1
  1418  1618  1621    1
  1419  1619  1622    1
  1420  1619  1623    1
  1421  1619  1624    1
  1422  1625  1626    1
  1423  1626  1627    1
  1424  1626  1628    1
  1425  1626  1629    1
  1426  1627  1630    1
  1427  1627  1631    1
  1428  1627  1632    1
  1429  1633  1634    1
  1430  1634  1635    1
  1431  1634  1636    1
  1432  1634  1637    1
  1433  1635  1638    1
  1434  1635  1639    1
  1435  1635  1640    1
  1436  1641  1642    1
  1437  1642  1643    1
  1438  1642  1644    1
  1439  1642  1645    1
  1440  1643  1646    1
  1441  1643  1647    1
  1442  1643  1648    1
  1443  1649  1650    1
  1444  1650  1651    1
  1445  1650  1652    1
  1446  1650  1653    1
  1447  1651  1654    1
  1448  1651  1655    1
  1449  1651  1656    1
  1450  1657  1658    1
  1451  1658  1659    1
  1452  1658  1660    1
  1453  1658  1661    1
  1454  1659  1662    1
  1455  1659  1663    1
  1456  1659  1664    1
  1457  1665  1666    1
  1458  1666  1667    1
  1459  1666  1668    1
  1460  1666  1669    1
  1461  1667  1670    1
  1462  1667  1671    1
  1463  1667  1672    1
  1464  1673  1674    1
  1465  1674  1675    1
  1466  1674  1676    1
  1467  1674  1677    1
  1468  1675  1678    1
  1469  1675  1679    1
  1470  1675  1680    1
  1471  1681  1682    1
  1472  1682  1683    1
  1473  1682  1684    1
  1474  1682  1685    1
  1475  1683  1686    1
  1476  1683  1687    1
  1477  1683  1688    1
  1478  1689  1690    1
  1479  1690  1691    1
  1480  1690  1692    1
  1481  1690  1693    1
  1482  1691  1694    1
  1483  1691  1695    1
  1484  1691  1696    1
  1485  1697  1698    1
  1486  1698  1699    1
  1487  1698  1700    1
  1488  1698  1701    1
  1489  1699  1702    1
  1490  1699  1703    1
  1491  1699  1704    1
  1492  1705  1706    1
  1493  1706  1707    1
  1494  1706  1708    1
  1495  1706  1709    1
  1496  1707  1710    1
  1497  1707  1711    1
  1498  1707  1712    1
  1499  1713  1714    1
  1500  1714  1715    1
  1501  1714  1716    1
  1502  1714  1717    1
  1503  1715  1718    1
  1504  1715  1719    1
  1505  1715  1720    1
  1506  1721  1722    1
  1507  1722  1723    1
  1508  1722  1724    1
  1509  1722  1725    1
  1510  1723  1726    1
  1511  1723  1727    1
  1512  1723  1728    1
  1513  1729  1730    1
  1514  1730  1731    1
  1515  1730  1732    1
  1516  1730  1733    1
  1517  1731  1734    1
  1518  1731  1735    1
  1519  1731  1736    1
  1520  1737  1738    1
  1521  1738  1739    1
  1522  1738  1740    1
  1523  1738  1741    1
  1524  1739  1742    1
  1525  1739  1743    1
  1526  1739  1744    1
  1527  1745  1746    1
  1528  1746  1747    1
  1529  1746  1748    1
  1530  1746  1749    1
  1531  1747  1750    1
  1532  1747  1751    1
  1533  1747  1752    1
  1534  1753  1754    1
  1535  1754  1755    1
  1536  1754  1756    1
  1537  1754  1757    1
  1538  1755  1758    1
  1539  1755  1759    1
  1540  1755  1760    1
  1541  1761  1762    1
  1542  1762  1763    1
  1543  1762  1764    1
  1544  1762  1765    1
  1545  1763  1766    1
  1546  1763  1767    1
  1547  1763  1768    1
  1548  1769  1770    1
  1549  1770  1771    1
  1550  1770  1772    1
  1551  1770  1773    1
  1552  1771  1774    1
  1553  1771  1775    1
  1554  1771  1776    1
  1555  1777  1778    1
  1556  1778  1779    1
  1557  1778  1780    1
  1558  1778  1781    1
  1559  1779  1782    1
  1560  1779  1783    1
  1561  1779  1784    1
  1562  1785  1786    1
  1563  1786  1787    1
  1564  1786  1788    1
  1565  1786  1789    1
  1566  1787  1790    1
  1567  1787  1791    1
  1568  1787  1792    1
  1569  1793  1794    1
  1570  1794  1795    1
  1571  1794  1796    1
  1572  1794  1797    1
  1573  1795  1798    1
  1574  1795  1799    1
  1575  1795  1800    1
  1576  1801  1802    1
  1577  1802  1803    1
  1578  1802  1804    1
  1579  1802  1805    1
  1580  1803  1806    1
  1581  1803  1807    1
  1582  1803  1808    1
  1583  1809  1810    1
  1584  1810  1811    1
  1585  1810  1812    1
  1586  1810  1813    1
  1587  1811  1814    1
  1588  1811  1815    1
  1589  1811  1816    1
  1590  1817  1818    1
  1591  1818  1819    1
  1592  1818  1820    1
  1593  1818  1821    1
  1594  1819  1822    1
  1595  1819  1823    1
  1596  1819  1824    1
  1597  1825  1826    1
  1598  1826  1827    1
  1599  1826  1828    1
  1600  1826  1829    1
  1601  1827  1830    1
  1602  1827  1831    1
  1603  1827  1832    1
  1604  1833  1834    1
  1605  1834  1835    1
  1606  1834  1836    1
  1607  1834  1837    1
  1608  1835  1838    1
  1609  1835  1839    1
  1610  1835  1840    1
  1611  1841  1842    1
  1612  1842  1843    1
  1613  1842  1844    1
  1614  1842  1845    1
  1615  1843  1846    1
  1616  1843  1847    1
  1617  1843  1848    1
  1618  1849  1850    1
  1619  1850  1851    1
  1620  1850  1852    1
  1621  1850  1853    1
  1622  1851  1854    1
  1623  1851  1855    1
  1624  1851  1856    1
  1625  1857  1858    1
  1626  1858  1859    1
  1627  1858  1860    1
  1628  1858  1861    1
  1629  1859  1862    1
  1630  1859  1863    1
  1631  1859  1864    1
  1632  1865  1866    1
  1633  1866  1867    1
  1634  1866  1868    1
  1635  1866  1869    1
  1636  1867  1870    1
  1637  1867  1871    1
  1638  1867  1872    1
  1639  1873  1874    1
  1640  1874  1875    1
  1641  1874  1876    1
  1642  1874  1877    1
  1643  1875  1878    1
  1644  1875  1879    1
  1645  1875  1880    1
  1646  1881  1882    1
  1647  1882  1883    1
  1648  1882  1884    1
  1649  1882  1885    1
  1650  1883  1886    1
  1651  1883  1887    1
  1652  1883  1888    1
  1653  1889  1890    1
  1654  1890  1891    1
  1655  1890  1892    1
  1656  1890  1893    1
  1657  1891  1894    1
  1658  1891  1895    1
  1659  1891  1896    1
  1660  1897  1898    1
  1661  1898  1899    1
  1662  1898  1900    1
  1663  1898  1901    1
  1664  1899  1902    1
  1665  1899  1903    1
  1666  1899  1904    1
  1667  1905  1906    1
  1668  1906  1907    1
  1669  1906  1908    1
  1670  1906  1909    1
  1671  1907  1910    1
  1672  1907  1911    1
  1673  1907  1912    1
  1674  1913  1914    1
  1675  1914  1915    1
  1676  1914  1916    1
  1677  1914  1917    1
  1678  1915  1918    1
  1679  1915  1919    1
  1680  1915  1920    1
  1681  1921  1922    1
  1682  1922  1923    1
  1683  1922  1924    1
  1684  1922  1925    1
  1685  1923  1926    1
  1686  1923  1927    1
  1687  1923  1928    1
  1688  1929  1930    1
  1689  1930  1931    1
  1690  1930  1932    1
  1691  1930  1933    1
  1692  1931  1934    1
  1693  1931  1935    1
  1694  1931  1936    1
  1695  1937  1938    1
  1696  1938  1939    1
  1697  1938  1940    1
  1698  1938  1941    1
  1699  1939  1942    1
  1700  1939  1943    1
  1701  1939  1944    1
  1702  1945  1946    1
  1703  1946  1947    1
  1704  1946  1948    1
  1705  1946  1949    1
  1706  1947  1950    1
  1707  1947  1951    1
  1708  1947  1952    1
  1709  1953  1954    1
  1710  1954  1955    1
  1711  1954  1956    1
  1712  1954  1957    1
  1713  1955  1958    1
  1714  1955  1959    1
  1715  1955  1960    1
  1716  1961  1962    1
  1717  1962  1963    1
  1718  1962  1964    1
  1719  1962  1965    1
  1720  1963  1966    1
  1721  1963  1967    1
  1722  1963  1968    1
  1723  1969  1970    1
  1724  1970  1971    1
  1725  1970  1972    1
  1726  1970  1973    1
  1727  1971  1974    1
  1728  1971  1975    1
  1729  1971  1976    1
  1730  1977  1978    1
  1731  1978  1979    1
  1732  1978  1980    1
  1733  1978  1981    1
  1734  1979  1982    1
  1735  1979  1983    1
  1736  1979  1984    1
  1737  1985  1986    1
  1738  1986  1987    1
  1739  1986  1988    1
  1740  1986  1989    1
  1741  1987  1990    1
  1742  1987  1991    1
  1743  1987  1992    1
  1744  1993  1994    1
  1745  1994  1995    1
  1746  1994  1996    1
  1747  1994  1997    1
  1748  1995  1998    1
  1749  1995  1999    1
  1750  1995  2000    1
  1751  2001  2002    1
  1752  2002  2003    1
  1753  2002  2004    1
  1754  2002  2005    1
  1755  2003  2006    1
  1756  2003  2007    1
  1757  2003  2008    1
  1758  2009  2010    1
  1759  2010  2011    1
  1760  2010  2012    1
  1761  2010  2013    1
  1762  2011  2014    1
  1763  2011  2015    1
  1764  2011  2016    1
  1765  2017  2018    1
  1766  2018  2019    1
  1767  2018  2020    1
  1768  2018  2021    1
  1769  2019  2022    1
  1770  2019  2023    1
  1771  2019  2024    1
  1772  2025  2026    1
  1773  2026  2027    1
  1774  2026  2028    1
  1775  2026  2029    1
  1776  2027  2030    1
  1777  2027  2031    1
  1778  2027  2032    1
  1779  2033  2034    1
  1780  2034  2035    1
  1781  2034  2036    1
  1782  2034  2037    1
  1783  2035  2038    1
  1784  2035  2039    1
  1785  2035  2040    1
  1786  2041  2042    1
  1787  2042  2043    1
  1788  2042  2044    1
  1789  2042  2045    1
  1790  2043  2046    1
  1791  2043  2047    1
  1792  2043  2048    1
  1793  2049  2050    1
  1794  2050  2051    1
  1795  2050  2052    1
  1796  2050  2053    1
  1797  2051  2054    1
  1798  2051  2055    1
  1799  2051  2056    1
  1800  2057  2058    1
  1801  2058  2059    1
  1802  2058  2060    1
  1803  2058  2061    1
  1804  2059  2062    1
  1805  2059  2063    1
  1806  2059  2064    1
  1807  2065  2066    1
  1808  2066  2067    1
  1809  2066  2068    1
  1810  2066  2069    1
  1811  2067  2070    1
  1812  2067  2071    1
  1813  2067  2072    1
  1814  2073  2074    1
  1815  2074  2075    1
  1816  2074  2076    1
  1817  2074  2077    1
  1818  2075  2078    1
  1819  2075  2079    1
  1820  2075  2080    1
  1821  2081  2082    1
  1822  2082  2083    1
  1823  2082  2084    1
  1824  2082  2085    1
  1825  2083  2086    1
  1826  2083  2087    1
  1827  2083  2088    1
  1828  2089  2090    1
  1829  2090  2091    1
  1830  2090  2092    1
  1831  2090  2093    1
  1832  2091  2094    1
  1833  2091  2095    1
  1834  2091  2096    1
  1835  2097  2098    1
  1836  2098  2099    1
  1837  2098  2100    1
  1838  2098  2101    1
  1839  2099  2102    1
  1840  2099  2103    1
  1841  2099  2104    1
  1842  2105  2106    1
  1843  2106  2107    1
  1844  2106  2108    1
  1845  2106  2109    1
  1846  2107  2110    1
  1847  2107  2111    1
  1848  2107  2112    1
  1849  2113  2114    1
  1850  2114  2115    1
  1851  2114  2116    1
  1852  2114  2117    1
  1853  2115  2118    1
  1854  2115  2119    1
  1855  2115  2120    1
  1856  2121  2122    1
  1857  2122  2123    1
  1858  2122  2124    1
  1859  2122  2125    1
  1860  2123  2126    1
  1861  2123  2127    1
  1862  2123  2128    1
  1863  2129  2130    1
  1864  2130  2131    1
  1865  2130  2132    1
  1866  2130  2133    1
  1867  2131  2134    1
  1868  2131  2135    1
  1869  2131  2136    1
  1870  2137  2138    1
  1871  2138  2139    1
  1872  2138  2140    1
  1873  2138  2141    1
  1874  2139  2142    1
  1875  2139  2143    1
  1876  2139  2144    1
  1877  2145  2146    1
  1878  2146  2147    1
  1879  2146  2148    1
  1880  2146  2149    1
  1881  2147  2150    1
  1882  2147  2151    1
  1883  2147  2152    1
  1884  2153  2154    1
  1885  2154  2155    1
  1886  2154  2156    1
  1887  2154  2157    1
  1888  2155  2158    1
  1889  2155  2159    1
  1890  2155  2160    1
  1891  2161  2162    1
  1892  2162  2163    1
  1893  2162  2164    1
  1894  2162  2165    1
  1895  2163  2166    1
  1896  2163  2167    1
  1897  2163  2168    1
  1898  2169  2170    1
  1899  2170  2171    1
  1900  2170  2172    1
  1901  2170  2173    1
  1902  2171  2174    1
  1903  2171  2175    1
  1904  2171  2176    1
  1905  2177  2178    1
  1906  2178  2179    1
  1907  2178  2180    1
  1908  2178  2181    1
  1909  2179  2182    1
  1910  2179  2183    1
  1911  2179  2184    1
  1912  2185  2186    1
  1913  2186  2187    1
  1914  2186  2188    1
  1915  2186  2189    1
  1916  2187  2190    1
  1917  2187  2191    1
  1918  2187  2192    1
  1919  2193  2194    1
  1920  2194  2195    1
  1921  2194  2196    1
  1922  2194  2197    1
  1923  2195  2198    1
  1924  2195  2199    1
  1925  2195  2200    1
  1926  2201  2202    1
  1927  2202  2203    1
  1928  2202  2204    1
  1929  2202  2205    1
  1930  2203  2206    1
  1931  2203  2207    1
  1932  2203  2208    1
  1933  2209  2210    1
  1934  2210  2211    1
  1935  2210  2212    1
  1936  2210  2213    1
  1937  2211  2214    1
  1938  2211  2215    1
  1939  2211  2216    1
  1940  2217  2218    1
  1941  2218  2219    1
  1942  2218  2220    1
  1943  2218  2221    1
  1944  2219  2222    1
  1945  2219  2223    1
  1946  2219  2224    1
  1947  2225  2226    1
  1948  2226  2227    1
  1949  2226  2228    1
  1950  2226  2229    1
  1951  2227  2230    1
  1952  2227  2231    1
  1953  2227  2232    1
  1954  2233  2234    1
  1955  2234  2235    1
  1956  2234  2236    1
  1957  2234  2237    1
  1958  2235  2238    1
  1959  2235  2239    1
  1960  2235  2240    1
  1961  2241  2242    1
  1962  2242  2243    1
  1963  2242  2244    1
  1964  2242  2245    1
  1965  2243  2246    1
  1966  2243  2247    1
  1967  2243  2248    1
  1968  2249  2250    1
  1969  2250  2251    1
  1970  2250  2252    1
  1971  2250  2253    1
  1972  2251  2254    1
  1973  2251  2255    1
  1974  2251  2256    1
  1975  2257  2258    1
  1976  2258  2259    1
  1977  2258  2260    1
  1978  2258  2261    1
  1979  2259  2262    1
  1980  2259  2263    1
  1981  2259  2264    1
  1982  2265  2266    1
  1983  2266  2267    1
  1984  2266  2268    1
  1985  2266  2269    1
  1986  2267  2270    1
  1987  2267  2271    1
  1988  2267  2272    1
  1989  2273  2274    1
  1990  2274  2275    1
  1991  2274  2276    1
  1992  2274  2277    1
  1993  2275  2278    1
  1994  2275  2279    1
  1995  2275  2280    1
  1996  2281  2282    1
  1997  2282  2283    1
  1998  2282  2284    1
  1999  2282  2285    1
  2000  2283  2286    1
  2001  2283  2287    1
  2002  2283  2288    1
  2003  2289  2290    1
  2004  2290  2291    1
  2005  2290  2292    1
  2006  2290  2293    1
  2007  2291  2294    1
  2008  2291  2295    1
  2009  2291  2296    1
  2010  2297  2298    1
  2011  2298  2299    1
  2012  2298  2300    1
  2013  2298  2301    1
  2014  2299  2302    1
  2015  2299  2303    1
  2016  2299  2304    1
  2017  2305  2306    1
  2018  2306  2307    1
  2019  2306  2308    1
  2020  2306  2309    1
  2021  2307  2310    1
  2022  2307  2311    1
  2023  2307  2312    1
  2024  2313  2314    1
  2025  2314  2315    1
  2026  2314  2316    1
  2027  2314  2317    1
  2028  2315  2318    1
  2029  2315  2319    1
  2030  2315  2320    1
  2031  2321  2322    1
  2032  2322  2323    1
  2033  2322  2324    1
  2034  2322  2325    1
  2035  2323  2326    1
  2036  2323  2327    1
  2037  2323  2328    1
  2038  2329  2330    1
  2039  2330  2331    1
  2040  2330  2332    1
  2041  2330  2333    1
  2042  2331  2334    1
  2043  2331  2335    1
  2044  2331  2336    1
  2045  2337  2338    1
  2046  2338  2339    1
  2047  2338  2340    1
  2048  2338  2341    1
  2049  2339  2342    1
  2050  2339  2343    1
  2051  2339  2344    1
  2052  2345  2346    1
  2053  2346  2347    1
  2054  2346  2348    1
  2055  2346  2349    1
  2056  2347  2350    1
  2057  2347  2351    1
  2058  2347  2352    1
  2059  2353  2354    1
  2060  2354  2355    1
  2061  2354  2356    1
  2062  2354  2357    1
  2063  2355  2358    1
  2064  2355  2359    1
  2065  2355  2360    1
  2066  2361  2362    1
  2067  2362  2363    1
  2068  2362  2364    1
  2069  2362  2365    1
  2070  2363  2366    1
  2071  2363  2367    1
  2072  2363  2368    1
  2073  2369  2370    1
  2074  2370  2371    1
  2075  2370  2372    1
  2076  2370  2373    1
  2077  2371  2374    1
  2078  2371  2375    1
  2079  2371  2376    1
  2080  2377  2378    1
  2081  2378  2379    1
  2082  2378  2380    1
  2083  2378  2381    1
  2084  2379  2382    1
  2085  2379  2383    1
  2086  2379  2384    1
  2087  2385  2386    1
  2088  2386  2387    1
  2089  2386  2388    1
  2090  2386  2389    1
  2091  2387  2390    1
  2092  2387  2391    1
  2093  2387  2392    1
  2094  2393  2394    1
  2095  2394  2395    1
  2096  2394  2396    1
  2097  2394  2397    1
  2098  2395  2398    1
  2099  2395  2399    1
  2100  2395  2400    1
  2101  2401  2402    1
  2102  2402  2403    1
  2103  2402  2404    1
  2104  2402  2405    1
  2105  2403  2406    1
  2106  2403  2407    1
  2107  2403  2408    1
  2108  2409  2410    1
  2109  2410  2411    1
  2110  2410  2412    1
  2111  2410  2413    1
  2112  2411  2414    1
  2113  2411  2415    1
  2114  2411  2416    1
  2115  2417  2418    1
  2116  2418  2419    1
  2117  2418  2420    1
  2118  2418  2421    1
  2119  2419  2422    1
  2120  2419  2423    1
  2121  2419  2424    1
  2122  2425  2426    1
  2123  2426  2427    1
  2124  2426  2428    1
  2125  2426  2429    1
  2126  2427  2430    1
  2127  2427  2431    1
  2128  2427  2432    1
  2129  2433  2434    1
  2130  2434  2435    1
  2131  2434  2436    1
  2132  2434  2437    1
  2133  2435  2438    1
  2134  2435  2439    1
  2135  2435  2440    1
  2136  2441  2442    1
  2137  2442  2443    1
  2138  2442  2444    1
  2139  2442  2445    1
  2140  2443  2446    1
  2141  2443  2447    1
  2142  2443  2448    1
  2143  2449  2450    1
  2144  2450  2451    1
  2145  2450  2452    1
  2146  2450  2453    1
  2147  2451  2454    1
  2148  2451  2455    1
  2149  2451  2456    1
  2150  2457  2458    1
  2151  2458  2459    1
  2152  2458  2460    1
  2153  2458  2461    1
  2154  2459  2462    1
  2155  2459  2463    1
  2156  2459  2464    1
  2157  2465  2466    1
  2158  2466  2467    1
  2159  2466  2468    1
  2160  2466  2469    1
  2161  2467  2470    1
  2162  2467  2471    1
  2163  2467  2472    1
  2164  2473  2474    1
  2165  2474  2475    1
  2166  2474  2476    1
  2167  2474  2477    1
  2168  2475  2478    1
  2169  2475  2479    1
  2170  2475  2480    1
  2171  2481  2482    1
  2172  2482  2483    1
  2173  2482  2484    1
  2174  2482  2485    1
  2175  2483  2486    1
  2176  2483  2487    1
  2177  2483  2488    1
  2178  2489  2490    1
  2179  2490  2491    1
  2180  2490  2492    1
  2181  2490  2493    1
  2182  2491  2494    1
  2183  2491  2495    1
  2184  2491  2496    1
  2185  2497  2498    1
  2186  2498  2499    1
  2187  2498  2500    1
  2188  2498  2501    1
  2189  2499  2502    1
  2190  2499  2503    1
  2191  2499  2504    1
  2192  2505  2506    1
  2193  2506  2507    1
  2194  2506  2508    1
  2195  2506  2509    1
  2196  2507  2510    1
  2197  2507  2511    1
  2198  2507  2512    1
  2199  2513  2514    1
  2200  2514  2515    1
  2201  2514  2516    1
  2202  2514  2517    1
  2203  2515  2518    1
  2204  2515  2519    1
  2205  2515  2520    1
  2206  2521  2522    1
  2207  2522  2523    1
  2208  2522  2524    1
  2209  2522  2525    1
  2210  2523  2526    1
  2211  2523  2527    1
  2212  2523  2528    1
  2213  2529  2530    1
  2214  2530  2531    1
  2215  2530  2532    1
  2216  2530  2533    1
  2217  2531  2534    1
  2218  2531  2535    1
  2219  2531  2536    1
  2220  2537  2538    1
  2221  2538  2539    1
  2222  2538  2540    1
  2223  2538  2541    1
  2224  2539  2542    1
  2225  2539  2543    1
  2226  2539  2544    1
  2227  2545  2546    1
  2228  2546  2547    1
  2229  2546  2548    1
  2230  2546  2549    1
  2231  2547  2550    1
  2232  2547  2551    1
  2233  2547  2552    1
  2234  2553  2554    1
  2235  2554  2555    1
  2236  2554  2556    1
  2237  2554  2557    1
  2238  2555  2558    1
  2239  2555  2559    1
  2240  2555  2560    1
  2241  2561  2562    1
  2242  2562  2563    1
  2243  2562  2564    1
  2244  2562  2565    1
  2245  2563  2566    1
  2246  2563  2567    1
  2247  2563  2568    1
  2248  2569  2570    1
  2249  2570  2571    1
  2250  2570  2572    1
  2251  2570  2573    1
  2252  2571  2574    1
  2253  2571  2575    1
  2254  2571  2576    1
  2255  2577  2578    1
  2256  2578  2579    1
  2257  2578  2580    1
  2258  2578  2581    1
  2259  2579  2582    1
  2260  2579  2583    1
  2261  2579  2584    1
  2262  2585  2586    1
  2263  2586  2587    1
  2264  2586  2588    1
  2265  2586  2589    1
  2266  2587  2590    1
  2267  2587  2591    1
  2268  2587  2592    1
  2269  2593  2594    1
  2270  2594  2595    1
  2271  2594  2596    1
  2272  2594  2597    1
  2273  2595  2598    1
  2274  2595  2599    1
  2275  2595  2600    1
  2276  2601  2602    1
  2277  2602  2603    1
  2278  2602  2604    1
  2279  2602  2605    1
  2280  2603  2606    1
  2281  2603  2607    1
  2282  2603  2608    1
  2283  2609  2610    1
  2284  2610  2611    1
  2285  2610  2612    1
  2286  2610  2613    1
  2287  2611  2614    1
  2288  2611  2615    1
  2289  2611  2616    1
  2290  2617  2618    1
  2291  2618  2619    1
  2292  2618  2620    1
  2293  2618  2621    1
  2294  2619  2622    1
  2295  2619  2623    1
  2296  2619  2624    1
  2297  2625  2626    1
  2298  2626  2627    1
  2299  2626  2628    1
  2300  2626  2629    1
  2301  2627  2630    1
  2302  2627  2631    1
  2303  2627  2632    1
  2304  2633  2634    1
  2305  2634  2635    1
  2306  2634  2636    1
  2307  2634  2637    1
  2308  2635  2638    1
  2309  2635  2639    1
  2310  2635  2640    1
  2311  2641  2642    1
  2312  2642  2643    1
  2313  2642  2644    1
  2314  2642  2645    1
  2315  2643  2646    1
  2316  2643  2647    1
  2317  2643  2648    1
  2318  2649  2650    1
  2319  2650  2651    1
  2320  2650  2652    1
  2321  2650  2653    1
  2322  2651  2654    1
  2323  2651  2655    1
  2324  2651  2656    1
  2325  2657  2658    1
  2326  2658  2659    1
  2327  2658  2660    1
  2328  2658  2661    1
  2329  2659  2662    1
  2330  2659  2663    1
  2331  2659  2664    1
  2332  2665  2666    1
  2333  2666  2667    1
  2334  2666  2668    1
  2335  2666  2669    1
  2336  2667  2670    1
  2337  2667  2671    1
  2338  2667  2672    1
  2339  2673  2674    1
  2340  2674  2675    1
  2341  2674  2676    1
  2342  2674  2677    1
  2343  2675  2678    1
  2344  2675  2679    1
  2345  2675  2680    1
  2346  2681  2682    1
  2347  2682  2683    1
  2348  2682  2684    1
  2349  2682  2685    1
  2350  2683  2686    1
  2351  2683  2687    1
  2352  2683  2688    1
  2353  2689  2690    1
  2354  2690  2691    1
  2355  2690  2692    1
  2356  2690  2693    1
  2357  2691  2694    1
  2358  2691  2695    1
  2359  2691  2696    1
  2360  2697  2698    1
  2361  2698  2699    1
  2362  2698  2700    1
  2363  2698  2701    1
  2364  2699  2702    1
  2365  2699  2703    1
  2366  2699  2704    1
  2367  2705  2706    1
  2368  2706  2707    1
  2369  2706  2708    1
  2370  2706  2709    1
  2371  2707  2710    1
  2372  2707  2711    1
  2373  2707  2712    1
  2374  2713  2714    1
  2375  2714  2715    1
  2376  2714  2716    1
  2377  2714  2717    1
  2378  2715  2718    1
  2379  2715  2719    1
  2380  2715  2720    1
  2381  2721  2722    1
  2382  2722  2723    1
  2383  2722  2724    1
  2384  2722  2725    1
  2385  2723  2726    1
  2386  2723  2727    1
  2387  2723  2728    1
  2388  2729  2730    1
  2389  2730  2731    1
  2390  2730  2732    1
  2391  2730  2733    1
  2392  2731  2734    1
  2393  2731  2735    1
  2394  2731  2736    1
  2395  2737  2738    1
  2396  2738  2739    1
  2397  2738  2740    1
  2398  2738  2741    1
  2399  2739  2742    1
  2400  2739  2743    1
  2401  2739  2744    1
  2402  2745  2746    1
  2403  2746  2747    1
  2404  2746  2748    1
  2405  2746  2749    1
  2406  2747  2750    1
  2407  2747  2751    1
  2408  2747  2752    1
  2409  2753  2754    1
  2410  2754  2755    1
  2411  2754  2756    1
  2412  2754  2757    1
  2413  2755  2758    1
  2414  2755  2759    1
  2415  2755  2760    1
  2416  2761  2762    1
  2417  2762  2763    1
  2418  2762  2764    1
  2419  2762  2765    1
  2420  2763  2766    1
  2421  2763  2767    1
  2422  2763  2768    1
  2423  2769  2770    1
  2424  2770  2771    1
  2425  2770  2772    1
  2426  2770  2773    1
  2427  2771  2774    1
  2428  2771  2775    1
  2429  2771  2776    1
  2430  2777  2778    1
  2431  2778  2779    1
  2432  2778  2780    1
  2433  2778  2781    1
  2434  2779  2782    1
  2435  2779  2783    1
  2436  2779  2784    1
  2437  2785  2786    1
  2438  2786  2787    1
  2439  2786  2788    1
  2440  2786  2789    1
  2441  2787  2790    1
  2442  2787  2791    1
  2443  2787  2792    1
  2444  2793  2794    1
  2445  2794  2795    1
  2446  2794  2796    1
  2447  2794  2797    1
  2448  2795  2798    1
  2449  2795  2799    1
  2450  2795  2800    1
  2451  2801  2802    1
  2452  2802  2803    1
  2453  2802  2804    1
  2454  2802  2805    1
  2455  2803  2806    1
  2456  2803  2807    1
  2457  2803  2808    1
  2458  2809  2810    1
  2459  2810  2811    1
  2460  2810  2812    1
  2461  2810  2813    1
  2462  2811  2814    1
  2463  2811  2815    1
  2464  2811  2816    1
  2465  2817  2818    1
  2466  2818  2819    1
  2467  2818  2820    1
  2468  2818  2821    1
  2469  2819  2822    1
  2470  2819  2823    1
  2471  2819  2824    1
  2472  2825  2826    1
  2473  2826  2827    1
  2474  2826  2828    1
  2475  2826  2829    1
  2476  2827  2830    1
  2477  2827  2831    1
  2478  2827  2832    1
  2479  2833  2834    1
  2480  2834  2835    1
  2481  2834  2836    1
  2482  2834  2837    1
  2483  2835  2838    1
  2484  2835  2839    1
  2485  2835  2840    1
  2486  2841  2842    1
  2487  2842  2843    1
  2488  2842  2844    1
  2489  2842  2845    1
  2490  2843  2846    1
  2491  2843  2847    1
  2492  2843  2848    1
  2493  2849  2850    1
  2494  2850  2851    1
  2495  2850  2852    1
  2496  2850  2853    1
  2497  2851  2854    1
  2498  2851  2855    1
  2499  2851  2856    1
  2500  2857  2858    1
  2501  2858  2859    1
  2502  2858  2860    1
  2503  2858  2861    1
  2504  2859  2862    1
  2505  2859  2863    1
  2506  2859  2864    1
  2507  2865  2866    1
  2508  2866  2867    1
  2509  2866  2868    1
  2510  2866  2869    1
  2511  2867  2870    1
  2512  2867  2871    1
  2513  2867  2872    1
  2514  2873  2874    1
  2515  2874  2875    1
  2516  2874  2876    1
  2517  2874  2877    1
  2518  2875  2878    1
  2519  2875  2879    1
  2520  2875  2880    1
  2521  2881  2882    1
  2522  2882  2883    1
  2523  2882  2884    1
  2524  2882  2885    1
  2525  2883  2886    1
  2526  2883  2887    1
  2527  2883  2888    1
  2528  2889  2890    1
  2529  2890  2891    1
  2530  2890  2892    1
  2531  2890  2893    1
  2532  2891  2894    1
  2533  2891  2895    1
  2534  2891  2896    1
  2535  2897  2898    1
  2536  2898  2899    1
  2537  2898  2900    1
  2538  2898  2901    1
  2539  2899  2902    1
  2540  2899  2903    1
  2541  2899  2904    1
  2542  2905  2906    1
  2543  2906  2907    1
  2544  2906  2908    1
  2545  2906  2909    1
  2546  2907  2910    1
  2547  2907  2911    1
  2548  2907  2912    1
  2549  2913  2914    1
  2550  2914  2915    1
  2551  2914  2916    1
  2552  2914  2917    1
  2553  2915  2918    1
  2554  2915  2919    1
  2555  2915  2920    1
  2556  2921  2922    1
  2557  2922  2923    1
  2558  2922  2924    1
  2559  2922  2925    1
  2560  2923  2926    1
  2561  2923  2927    1
  2562  2923  2928    1
  2563  2929  2930    1
  2564  2930  2931    1
  2565  2930  2932    1
  2566  2930  2933    1
  2567  2931  2934    1
  2568  2931  2935    1
  2569  2931  2936    1
  2570  2937  2938    1
  2571  2938  2939    1
  2572  2938  2940    1
  2573  2938  2941    1
  2574  2939  2942    1
  2575  2939  2943    1
  2576  2939  2944    1
  2577  2945  2946    1
  2578  2946  2947    1
  2579  2946  2948    1
  2580  2946  2949    1
  2581  2947  2950    1
  2582  2947  2951    1
  2583  2947  2952    1
  2584  2953  2954    1
  2585  2954  2955    1
  2586  2954  2956    1
  2587  2954  2957    1
  2588  2955  2958    1
  2589  2955  2959    1
  2590  2955  2960    1
  2591  2961  2962    1
  2592  2962  2963    1
  2593  2962  2964    1
  2594  2962  2965    1
  2595  2963  2966    1
  2596  2963  2967    1
  2597  2963  2968    1
  2598  2969  2970    1
  2599  2970  2971    1
  2600  2970  2972    1
  2601  2970  2973    1
  2602  2971  2974    1
  2603  2971  2975    1
  2604  2971  2976    1
  2605  2977  2978    1
  2606  2978  2979    1
  2607  2978  2980    1
  2608  2978  2981    1
  2609  2979  2982    1
  2610  2979  2983    1
  2611  2979  2984    1
  2612  2985  2986    1
  2613  2986  2987    1
  2614  2986  2988    1
  2615  2986  2989    1
  2616  2987  2990    1
  2617  2987  2991    1
  2618  2987  2992    1
  2619  2993  2994    1
  2620  2994  2995    1
  2621  2994  2996    1
  2622  2994  2997    1
  2623  2995  2998    1
  2624  2995  2999    1
  2625  2995  3000    1
  2626  3001  3002    1
  2627  3002  3003    1
  2628  3002  3004    1
  2629  3002  3005    1
  2630  3003  3006    1
  2631  3003  3007    1
  2632  3003  3008    1
  2633  3009  3010    1
  2634  3010  3011    1
  2635  3010  3012    1
  2636  3010  3013    1
  2637  3011  3014    1
  2638  3011  3015    1
  2639  3011  3016    1
  2640  3017  3018    1
  2641  3018  3019    1
  2642  3018  3020    1
  2643  3018  3021    1
  2644  3019  3022    1
  2645  3019  3023    1
  2646  3019  3024    1
  2647  3025  3026    1
  2648  3026  3027    1
  2649  3026  3028    1
  2650  3026  3029    1
  2651  3027  3030    1
  2652  3027  3031    1
  2653  3027  3032    1
  2654  3033  3034    1
  2655  3034  3035    1
  2656  3034  3036    1
  2657  3034  3037    1
  2658  3035  3038    1
  2659  3035  3039    1
  2660  3035  3040    1
  2661  3041  3042    1
  2662  3042  3043    1
  2663  3042  3044    1
  2664  3042  3045    1
  2665  3043  3046    1
  2666  3043  3047    1
  2667  3043  3048    1
  2668  3049  3050    1
  2669  3050  3051    1
  2670  3050  3052    1
  2671  3050  3053    1
  2672  3051  3054    1
  2673  3051  3055    1
  2674  3051  3056    1
  2675  3057  3058    1
  2676  3058  3059    1
  2677  3058  3060    1
  2678  3058  3061    1
  2679  3059  3062    1
  2680  3059  3063    1
  2681  3059  3064    1
  2682  3065  3066    1
  2683  3066  3067    1
  2684  3066  3068    1
  2685  3066  3069    1
  2686  3067  3070    1
  2687  3067  3071    1
  2688  3067  3072    1
  2689  3073  3074    1
  2690  3074  3075    1
  2691  3074  3076    1
  2692  3074  3077    1
  2693  3075  3078    1
  2694  3075  3079    1
  2695  3075  3080    1
  2696  3081  3082    1
  2697  3082  3083    1
  2698  3082  3084    1
  2699  3082  3085    1
  2700  3083  3086    1
  2701  3083  3087    1
  2702  3083  3088    1
  2703  3089  3090    1
  2704  3090  3091    1
  2705  3090  3092    1
  2706  3090  3093    1
  2707  3091  3094    1
  2708  3091  3095    1
  2709  3091  3096    1
  2710  3097  3098    1
  2711  3098  3099    1
  2712  3098  3100    1
  2713  3098  3101    1
  2714  3099  3102    1
  2715  3099  3103    1
  2716  3099  3104    1
  2717  3105  3106    1
  2718  3106  3107    1
  2719  3106  3108    1
  2720  3106  3109    1
  2721  3107  3110    1
  2722  3107  3111    1
  2723  3107  3112    1
  2724  3113  3114    1
  2725  3114  3115    1
  2726  3114  3116    1
  2727  3114  3117    1
  2728  3115  3118    1
  2729  3115  3119    1
  2730  3115  3120    1
  2731  3121  3122    1
  2732  3122  3123    1
  2733  3122  3124    1
  2734  3122  3125    1
  2735  3123  3126    1
  2736  3123  3127    1
  2737  3123  3128    1
  2738  3129  3130    1
  2739  3130  3131    1
  2740  3130  3132    1
  2741  3130  3133    1
  2742  3131  3134    1
  2743  3131  3135    1
  2744  3131  3136    1
  2745  3137  3138    1
  2746  3138  3139    1
  2747  3138  3140    1
  2748  3138  3141    1
  2749  3139  3142    1
  2750  3139  3143    1
  2751  3139  3144    1
  2752  3145  3146    1
  2753  3146  3147    1
  2754  3146  3148    1
  2755  3146  3149    1
  2756  3147  3150    1
  2757  3147  3151    1
  2758  3147  3152    1
  2759  3153  3154    1
  2760  3154  3155    1
  2761  3154  3156    1
  2762  3154  3157    1
  2763  3155  3158    1
  2764  3155  3159    1
  2765  3155  3160    1
  2766  3161  3162    1
  2767  3162  3163    1
  2768  3162  3164    1
  2769  3162  3165    1
  2770  3163  3166    1
  2771  3163  3167    1
  2772  3163  3168    1
  2773  3169  3170    1
  2774  3170  3171    1
  2775  3170  3172    1
  2776  3170  3173    1
  2777  3171  3174    1
  2778  3171  3175    1
  2779  3171  3176    1
  2780  3177  3178    1
  2781  3178  3179    1
  2782  3178  3180    1
  2783  3178  3181    1
  2784  3179  3182    1
  2785  3179  3183    1
  2786  3179  3184    1
  2787  3185  3186    1
  2788  3186  3187    1
  2789  3186  3188    1
  2790  3186  3189    1
  2791  3187  3190    1
  2792  3187  3191    1
  2793  3187  3192    1
  2794  3193  3194    1
  2795  3194  3195    1
  2796  3194  3196    1
  2797  3194  3197    1
  2798  3195  3198    1
  2799  3195  3199    1
  2800  3195  3200    1
  2801  3201  3202    1
  2802  3202  3203    1
  2803  3202  3204    1
  2804  3202  3205    1
  2805  3203  3206    1
  2806  3203  3207    1
  2807  3203  3208    1
  2808  3209  3210    1
  2809  3210  3211    1
  2810  3210  3212    1
  2811  3210  3213    1
  2812  3211  3214    1
  2813  3211  3215    1
  2814  3211  3216    1
  2815  3217  3218    1
  2816  3218  3219    1
  2817  3218  3220    1
  2818  3218  3221    1
  2819  3219  3222    1
  2820  3219  3223    1
  2821  3219  3224    1
  2822  3225  3226    1
  2823  3226  3227    1
  2824  3226  3228    1
  2825  3226  3229    1
  2826  3227  3230    1
  2827  3227  3231    1
  2828  3227  3232    1
  2829  3233  3234    1
  2830  3234  3235    1
  2831  3234  3236    1
  2832  3234  3237    1
  2833  3235  3238    1
  2834  3235  3239    1
  2835  3235  3240    1
  2836  3241  3242    1
  2837  3242  3243    1
  2838  3242  3244    1
  2839  3242  3245    1
  2840  3243  3246    1
  2841  3243  3247    1
  2842  3243  3248    1
  2843  3249  3250    1
  2844  3250  3251    1
  2845  3250  3252    1
  2846  3250  3253    1
  2847  3251  3254    1
  2848  3251  3255    1
  2849  3251  3256    1
  2850  3257  3258    1
  2851  3258  3259    1
  2852  3258  3260    1
  2853  3258  3261    1
  2854  3259  3262    1
  2855  3259  3263    1
  2856  3259  3264    1
  2857  3265  3266    1
  2858  3266  3267    1
  2859  3266  3268    1
  2860  3266  3269    1
  2861  3267  3270    1
  2862  3267  3271    1
  2863  3267  3272    1
  2864  3273  3274    1
  2865  3274  3275    1
  2866  3274  3276    1
  2867  3274  3277    1
  2868  3275  3278    1
  2869  3275  3279    1
  2870  3275  3280    1
  2871  3281  3282    1
  2872  3282  3283    1
  2873  3282  3284    1
  2874  3282  3285    1
  2875  3283  3286    1
  2876  3283  3287    1
  2877  3283  3288    1
  2878  3289  3290    1
  2879  3290  3291    1
  2880  3290  3292    1
  2881  3290  3293    1
  2882  3291  3294    1
  2883  3291  3295    1
  2884  3291  3296    1
  2885  3297  3298    1
  2886  3298  3299    1
  2887  3298  3300    1
  2888  3298  3301    1
  2889  3299  3302    1
  2890  3299  3303    1
  2891  3299  3304    1
  2892  3305  3306    1
  2893  3306  3307    1
  2894  3306  3308    1
  2895  3306  3309    1
  2896  3307  3310    1
  2897  3307  3311    1
  2898  3307  3312    1
  2899  3313  3314    1
  2900  3314  3315    1
  2901  3314  3316    1
  2902  3314  3317    1
  2903  3315  3318    1
  2904  3315  3319    1
  2905  3315  3320    1
  2906  3321  3322    1
  2907  3322  3323    1
  2908  3322  3324    1
  2909  3322  3325    1
  2910  3323  3326    1
  2911  3323  3327    1
  2912  3323  3328    1
  2913  3329  3330    1
  2914  3330  3331    1
  2915  3330  3332    1
  2916  3330  3333    1
  2917  3331  3334    1
  2918  3331  3335    1
  2919  3331  3336    1
  2920  3337  3338    1
  2921  3338  3339    1
  2922  3338  3340    1
  2923  3338  3341    1
  2924  3339  3342    1
  2925  3339  3343    1
  2926  3339  3344    1
  2927  3345  3346    1
  2928  3346  3347    1
  2929  3346  3348    1
  2930  3346  3349    1
  2931  3347  3350    1
  2932  3347  3351    1
  2933  3347  3352    1
  2934  3353  3354    1
  2935  3354  3355    1
  2936  3354  3356    1
  2937  3354  3357    1
  2938  3355  3358    1
  2939  3355  3359    1
  2940  3355  3360    1
  2941  3361  3362    1
  2942  3362  3363    1
  2943  3362  3364    1
  2944  3362  3365    1
  2945  3363  3366    1
  2946  3363  3367    1
  2947  3363  3368    1
  2948  3369  3370    1
  2949  3370  3371    1
  2950  3370  3372    1
  2951  3370  3373    1
  2952  3371  3374    1
  2953  3371  3375    1
  2954  3371  3376    1
  2955  3377  3378    1
  2956  3378  3379    1
  2957  3378  3380    1
  2958  3378  3381    1
  2959  3379  3382    1
  2960  3379  3383    1
  2961  3379  3384    1
  2962  3385  3386    1
  2963  3386  3387    1
  2964  3386  3388    1
  2965  3386  3389    1
  2966  3387  3390    1
  2967  3387  3391    1
  2968  3387  3392    1
  2969  3393  3394    1
  2970  3394  3395    1
  2971  3394  3396    1
  2972  3394  3397    1
  2973  3395  3398    1
  2974  3395  3399    1
  2975  3395  3400    1
  2976  3401  3402    1
  2977  3402  3403    1
  2978  3402  3404    1
  2979  3402  3405    1
  2980  3403  3406    1
  2981  3403  3407    1
  2982  3403  3408    1
  2983  3409  3410    1
  2984  3410  3411    1
  2985  3410  3412    1
  2986  3410  3413    1
  2987  3411  3414    1
  2988  3411  3415    1
  2989  3411  3416    1
  2990  3417  3418    1
  2991  3418  3419    1
  2992  3418  3420    1
  2993  3418  3421    1
  2994  3419  3422    1
  2995  3419  3423    1
  2996  3419  3424    1
  2997  3425  3426    1
  2998  3426  3427    1
  2999  3426  3428    1
  3000  3426  3429    1
  3001  3427  3430    1
  3002  3427  3431    1
  3003  3427  3432    1
  3004  3433  3434    1
  3005  3434  3435    1
  3006  3434  3436    1
  3007  3434  3437    1
  3008  3435  3438    1
  3009  3435  3439    1
  3010  3435  3440    1
  3011  3441  3442    1
  3012  3442  3443    1
  3013  3442  3444    1
  3014  3442  3445    1
  3015  3443  3446    1
  3016  3443  3447    1
  3017  3443  3448    1
  3018  3449  3450    1
  3019  3450  3451    1
  3020  3450  3452    1
  3021  3450  3453    1
  3022  3451  3454    1
  3023  3451  3455    1
  3024  3451  3456    1
  3025  3457  3458    1
  3026  3458  3459    1
  3027  3458  3460    1
  3028  3458  3461    1
  3029  3459  3462    1
  3030  3459  3463    1
  3031  3459  3464    1
