@<TRIPOS>MOLECULE
*****
 1504 1316 0 0 0
SMALL
GASTEIGER

@<TRIPOS>ATOM
      1 CL          4.5299    3.3496   -1.0123 Cl      1  UNL1       -0.1257
      2 C           2.9874    2.4679   -1.0123 C.3     1  UNL1        0.0198
      3 C           1.8229    3.4357   -1.0123 C.3     1  UNL1       -0.0517
      4 H           2.9628    1.8308   -1.9009 H       1  UNL1        0.0427
      5 H           2.9628    1.8308   -0.1238 H       1  UNL1        0.0427
      6 H           0.8760    2.8864   -1.0123 H       1  UNL1        0.0241
      7 H           1.8402    4.0769   -0.1249 H       1  UNL1        0.0241
      8 H           1.8402    4.0769   -1.8997 H       1  UNL1        0.0241
      9 CL          3.8224    2.3340    1.9706 Cl      2  UNL2       -0.1257
     10 C           2.9332    0.7958    1.9706 C.3     2  UNL2        0.0198
     11 C           1.4398    1.0461    1.9706 C.3     2  UNL2       -0.0517
     12 H           3.2325    0.2329    1.0820 H       2  UNL2        0.0427
     13 H           3.2325    0.2329    2.8591 H       2  UNL2        0.0427
     14 H           0.8980    0.0949    1.9706 H       2  UNL2        0.0241
     15 H           1.1321    1.6089    2.8580 H       2  UNL2        0.0241
     16 H           1.1321    1.6089    1.0832 H       2  UNL2        0.0241
     17 CL          4.5299    3.3496    4.9534 Cl      3  UNL3       -0.1257
     18 C           2.9874    2.4679    4.9534 C.3     3  UNL3        0.0198
     19 C           1.8229    3.4357    4.9534 C.3     3  UNL3       -0.0517
     20 H           2.9628    1.8308    4.0648 H       3  UNL3        0.0427
     21 H           2.9628    1.8308    5.8419 H       3  UNL3        0.0427
     22 H           0.8760    2.8864    4.9534 H       3  UNL3        0.0241
     23 H           1.8402    4.0769    5.8408 H       3  UNL3        0.0241
     24 H           1.8402    4.0769    4.0660 H       3  UNL3        0.0241
     25 CL          2.4049    0.9746    7.9362 Cl      4  UNL4       -0.1257
     26 C           0.8624    0.0929    7.9362 C.3     4  UNL4        0.0198
     27 C          -0.3021    1.0607    7.9362 C.3     4  UNL4       -0.0517
     28 H           0.8378   -0.5442    7.0476 H       4  UNL4        0.0427
     29 H           0.8378   -0.5442    8.8247 H       4  UNL4        0.0427
     30 H          -1.2490    0.5114    7.9362 H       4  UNL4        0.0241
     31 H          -0.2848    1.7019    8.8236 H       4  UNL4        0.0241
     32 H          -0.2848    1.7019    7.0488 H       4  UNL4        0.0241
     33 CL          4.3830    3.3441   11.6840 Cl      5  UNL5       -0.1257
     34 C           2.9880    2.4760   11.0081 C.3     5  UNL5        0.0198
     35 C           1.8364    3.4289   10.7660 C.3     5  UNL5       -0.0517
     36 H           3.3045    2.0041   10.0736 H       5  UNL5        0.0427
     37 H           2.7020    1.6933   11.7163 H       5  UNL5        0.0427
     38 H           0.9805    2.8880   10.3497 H       5  UNL5        0.0241
     39 H           1.5132    3.9050   11.6975 H       5  UNL5        0.0241
     40 H           2.1149    4.2154   10.0569 H       5  UNL5        0.0241
     41 CL          4.2821    4.0345   16.8847 Cl      6  UNL6       -0.1257
     42 C           3.1376    2.6756   16.8847 C.3     6  UNL6        0.0198
     43 C           1.7110    3.1831   16.8847 C.3     6  UNL6       -0.0517
     44 H           3.3339    2.0689   15.9961 H       6  UNL6        0.0427
     45 H           3.3339    2.0689   17.7732 H       6  UNL6        0.0427
     46 H           1.0112    2.3414   16.8847 H       6  UNL6        0.0241
     47 H           1.5065    3.7911   17.7721 H       6  UNL6        0.0241
     48 H           1.5065    3.7911   15.9973 H       6  UNL6        0.0241
     49 CL          2.6914   -0.1720   20.5419 Cl      7  UNL7       -0.1257
     50 C           1.4103   -1.3099   20.0720 C.3     7  UNL7        0.0198
     51 C           0.1750   -0.5607   19.6189 C.3     7  UNL7       -0.0517
     52 H           1.7982   -1.9415   19.2678 H       7  UNL7        0.0427
     53 H           1.1862   -1.9415   20.9362 H       7  UNL7        0.0427
     54 H          -0.6101   -1.2671   19.3309 H       7  UNL7        0.0241
     55 H          -0.2199    0.0737   20.4193 H       7  UNL7        0.0241
     56 H           0.3913    0.0737   18.7530 H       7  UNL7        0.0241
     57 CL          4.2838    3.1556   21.8980 Cl      8  UNL8       -0.1257
     58 C           3.1351    2.5559   23.1137 C.3     8  UNL8        0.0198
     59 C           1.7131    2.8753   22.7032 C.3     8  UNL8       -0.0517
     60 H           3.2783    1.4759   23.2095 H       8  UNL8        0.0427
     61 H           3.3786    3.0276   24.0697 H       8  UNL8        0.0427
     62 H           1.0107    2.5033   23.4560 H       8  UNL8        0.0241
     63 H           1.5616    3.9553   22.6059 H       8  UNL8        0.0241
     64 H           1.4614    2.4056   21.7467 H       8  UNL8        0.0241
     65 CL          2.5299   -0.9152   25.5158 Cl      9  UNL9       -0.1257
     66 C           0.9874   -0.5192   26.3035 C.3     9  UNL9        0.0198
     67 C          -0.1771   -0.9539   25.4388 C.3     9  UNL9       -0.0517
     68 H           0.9628   -1.0270   27.2719 H       9  UNL9        0.0427
     69 H           0.9628    0.5608   26.4737 H       9  UNL9        0.0427
     70 H          -1.1240   -0.7072   25.9296 H       9  UNL9        0.0241
     71 H          -0.1598   -0.4490   24.4674 H       9  UNL9        0.0241
     72 H          -0.1598   -2.0347   25.2645 H       9  UNL9        0.0241
     73 CL          4.5299    3.2246   28.8160 Cl     10  UNL10      -0.1257
     74 C           2.9874    2.3429   28.8160 C.3    10  UNL10       0.0198
     75 C           1.8229    3.3107   28.8160 C.3    10  UNL10      -0.0517
     76 H           2.9628    1.7058   27.9274 H      10  UNL10       0.0427
     77 H           2.9628    1.7058   29.7045 H      10  UNL10       0.0427
     78 H           0.8760    2.7614   28.8160 H      10  UNL10       0.0241
     79 H           1.8402    3.9519   29.7034 H      10  UNL10       0.0241
     80 H           1.8402    3.9519   27.9286 H      10  UNL10       0.0241
     81 CL          0.9542    0.6542   29.7744 Cl     11  UNL11      -0.1257
     82 C           0.0754    0.9168   31.2961 C.3    11  UNL11       0.0198
     83 C           1.0453    1.0966   32.4448 C.3    11  UNL11      -0.0517
     84 H          -0.5517    1.8045   31.1748 H      11  UNL11       0.0427
     85 H          -0.5714    0.0515   31.4659 H      11  UNL11       0.0427
     86 H           0.4978    1.2579   33.3789 H      11  UNL11       0.0241
     87 H           1.6766    0.2112   32.5731 H      11  UNL11       0.0241
     88 H           1.6963    1.9619   32.2824 H      11  UNL11       0.0241
     89 CL          4.5299    6.6841   -1.0123 Cl     12  UNL12      -0.1257
     90 C           2.9874    5.8024   -1.0123 C.3    12  UNL12       0.0198
     91 C           1.8229    6.7702   -1.0123 C.3    12  UNL12      -0.0517
     92 H           2.9628    5.1653   -1.9009 H      12  UNL12       0.0427
     93 H           2.9628    5.1653   -0.1238 H      12  UNL12       0.0427
     94 H           0.8760    6.2209   -1.0123 H      12  UNL12       0.0241
     95 H           1.8402    7.4114   -0.1249 H      12  UNL12       0.0241
     96 H           1.8402    7.4114   -1.8997 H      12  UNL12       0.0241
     97 CL          2.6549    4.6841    1.9706 Cl     13  UNL13      -0.1257
     98 C           1.1124    3.8024    1.9706 C.3    13  UNL13       0.0198
     99 C          -0.0521    4.7702    1.9706 C.3    13  UNL13      -0.0517
    100 H           1.0878    3.1653    1.0820 H      13  UNL13       0.0427
    101 H           1.0878    3.1653    2.8591 H      13  UNL13       0.0427
    102 H          -0.9990    4.2209    1.9706 H      13  UNL13       0.0241
    103 H          -0.0348    5.4114    2.8580 H      13  UNL13       0.0241
    104 H          -0.0348    5.4114    1.0832 H      13  UNL13       0.0241
    105 CL          4.3239    7.0424    4.3050 Cl     14  UNL14      -0.1257
    106 C           3.0325    5.9014    4.7377 C.3    14  UNL14       0.0198
    107 C           1.8019    6.6468    5.2096 C.3    14  UNL14      -0.0517
    108 H           2.8058    5.2976    3.8545 H      14  UNL14       0.0427
    109 H           3.4130    5.2432    5.5237 H      14  UNL14       0.0427
    110 H           1.0104    5.9385    5.4745 H      14  UNL14       0.0241
    111 H           2.0208    7.2535    6.0945 H      14  UNL14       0.0241
    112 H           1.4143    7.3078    4.4274 H      14  UNL14       0.0241
    113 CL          2.6549    3.0537    7.8741 Cl     15  UNL15      -0.1257
    114 C           1.1124    2.1855    8.0283 C.3    15  UNL15       0.0198
    115 C          -0.0521    3.1384    7.8590 C.3    15  UNL15      -0.0517
    116 H           1.0878    1.4029    7.2648 H      15  UNL15       0.0427
    117 H           1.0878    1.7136    9.0145 H      15  UNL15       0.0427
    118 H          -0.9990    2.5976    7.9551 H      15  UNL15       0.0241
    119 H          -0.0348    3.9249    8.6206 H      15  UNL15       0.0241
    120 H          -0.0348    3.6146    6.8732 H      15  UNL15       0.0241
    121 CL          4.5299    6.6841   10.9190 Cl     16  UNL16      -0.1257
    122 C           2.9874    5.8024   10.9190 C.3    16  UNL16       0.0198
    123 C           1.8229    6.7702   10.9190 C.3    16  UNL16      -0.0517
    124 H           2.9628    5.1653   10.0304 H      16  UNL16       0.0427
    125 H           2.9628    5.1653   11.8075 H      16  UNL16       0.0427
    126 H           0.8760    6.2209   10.9190 H      16  UNL16       0.0241
    127 H           1.8402    7.4114   11.8064 H      16  UNL16       0.0241
    128 H           1.8402    7.4114   10.0316 H      16  UNL16       0.0241
    129 CL          4.5604    1.4448   13.9019 Cl     17  UNL17      -0.1257
    130 C           2.8875    0.8464   13.9019 C.3    17  UNL17       0.0198
    131 C           1.9102    2.0030   13.9019 C.3    17  UNL17      -0.0517
    132 H           2.7519    0.2234   13.0133 H      17  UNL17       0.0427
    133 H           2.7519    0.2234   14.7904 H      17  UNL17       0.0427
    134 H           0.8818    1.6277   13.9019 H      17  UNL17       0.0241
    135 H           2.0394    2.6312   14.7893 H      17  UNL17       0.0241
    136 H           2.0394    2.6312   13.0145 H      17  UNL17       0.0241
    137 CL          4.5299    6.6841   16.8847 Cl     18  UNL18      -0.1257
    138 C           2.9874    5.8024   16.8847 C.3    18  UNL18       0.0198
    139 C           1.8229    6.7702   16.8847 C.3    18  UNL18      -0.0517
    140 H           2.9628    5.1653   15.9961 H      18  UNL18       0.0427
    141 H           2.9628    5.1653   17.7732 H      18  UNL18       0.0427
    142 H           0.8760    6.2209   16.8847 H      18  UNL18       0.0241
    143 H           1.8402    7.4114   17.7721 H      18  UNL18       0.0241
    144 H           1.8402    7.4114   15.9973 H      18  UNL18       0.0241
    145 CL          2.5604    2.6948   19.8675 Cl     19  UNL19      -0.1257
    146 C           0.8875    2.0964   19.8675 C.3    19  UNL19       0.0198
    147 C          -0.0898    3.2530   19.8675 C.3    19  UNL19      -0.0517
    148 H           0.7519    1.4734   18.9789 H      19  UNL19       0.0427
    149 H           0.7519    1.4734   20.7560 H      19  UNL19       0.0427
    150 H          -1.1182    2.8777   19.8675 H      19  UNL19       0.0241
    151 H           0.0394    3.8812   20.7549 H      19  UNL19       0.0241
    152 H           0.0394    3.8812   18.9801 H      19  UNL19       0.0241
    153 CL          4.5299    6.6841   22.8503 Cl     20  UNL20      -0.1257
    154 C           2.9874    5.8024   22.8503 C.3    20  UNL20       0.0198
    155 C           1.8229    6.7702   22.8503 C.3    20  UNL20      -0.0517
    156 H           2.9628    5.1653   21.9617 H      20  UNL20       0.0427
    157 H           2.9628    5.1653   23.7388 H      20  UNL20       0.0427
    158 H           0.8760    6.2209   22.8503 H      20  UNL20       0.0241
    159 H           1.8402    7.4114   23.7377 H      20  UNL20       0.0241
    160 H           1.8402    7.4114   21.9629 H      20  UNL20       0.0241
    161 CL         -1.2752    3.6865   26.4639 Cl     21  UNL21      -0.1257
    162 C           0.3990    4.2772   26.5351 C.3    21  UNL21       0.0198
    163 C           0.9652    4.4366   25.1398 C.3    21  UNL21      -0.0517
    164 H           0.3971    5.2339   27.0650 H      21  UNL21       0.0427
    165 H           0.9864    3.5580   27.1127 H      21  UNL21       0.0427
    166 H           1.9964    4.8007   25.1906 H      21  UNL21       0.0241
    167 H           0.9711    3.4824   24.6029 H      21  UNL21       0.0241
    168 H           0.3826    5.1561   24.5552 H      21  UNL21       0.0241
    169 CL          2.1825    6.7187   26.7916 Cl     22  UNL22      -0.1257
    170 C           3.0109    6.3250   28.3132 C.3    22  UNL22       0.0198
    171 C           2.0249    6.2954   29.4620 C.3    22  UNL22      -0.0517
    172 H           3.4951    5.3519   28.1920 H      22  UNL22       0.0427
    173 H           3.7823    7.0814   28.4830 H      22  UNL22       0.0427
    174 H           2.5414    6.0524   30.3961 H      22  UNL22       0.0241
    175 H           1.5362    7.2668   29.5903 H      22  UNL22       0.0241
    176 H           1.2494    5.5396   29.2996 H      22  UNL22       0.0241
    177 CL          2.6862    5.0375   31.7988 Cl     23  UNL23      -0.1257
    178 C           1.3217    3.8997   31.7988 C.3    23  UNL23       0.0198
    179 C           0.0059    4.6489   31.7988 C.3    23  UNL23      -0.0517
    180 H           1.4089    3.2681   30.9102 H      23  UNL23       0.0427
    181 H           1.4089    3.2681   32.6873 H      23  UNL23       0.0427
    182 H          -0.8304    3.9425   31.7988 H      23  UNL23       0.0241
    183 H          -0.0892    5.2833   32.6862 H      23  UNL23       0.0241
    184 H          -0.0892    5.2833   30.9114 H      23  UNL23       0.0241
    185 CL          2.6549    8.0187    1.9706 Cl     24  UNL24      -0.1257
    186 C           1.1124    7.1370    1.9706 C.3    24  UNL24       0.0198
    187 C          -0.0521    8.1048    1.9706 C.3    24  UNL24      -0.0517
    188 H           1.0878    6.4999    1.0820 H      24  UNL24       0.0427
    189 H           1.0878    6.4999    2.8591 H      24  UNL24       0.0427
    190 H          -0.9990    7.5555    1.9706 H      24  UNL24       0.0241
    191 H          -0.0348    8.7460    2.8580 H      24  UNL24       0.0241
    192 H          -0.0348    8.7460    1.0832 H      24  UNL24       0.0241
    193 CL          4.5299    9.7687    4.9534 Cl     25  UNL25      -0.1257
    194 C           2.9874    8.8870    4.9534 C.3    25  UNL25       0.0198
    195 C           1.8229    9.8548    4.9534 C.3    25  UNL25      -0.0517
    196 H           2.9628    8.2499    4.0648 H      25  UNL25       0.0427
    197 H           2.9628    8.2499    5.8419 H      25  UNL25       0.0427
    198 H           0.8760    9.3055    4.9534 H      25  UNL25       0.0241
    199 H           1.8402   10.4960    5.8408 H      25  UNL25       0.0241
    200 H           1.8402   10.4960    4.0660 H      25  UNL25       0.0241
    201 CL          2.9049    5.5967    7.5858 Cl     26  UNL26      -0.1257
    202 C           1.3624    5.4523    8.4556 C.3    26  UNL26       0.0198
    203 C           0.1979    5.6108    7.5008 C.3    26  UNL26      -0.0517
    204 H           1.3378    4.4713    8.9385 H      26  UNL26       0.0427
    205 H           1.3378    6.2244    9.2296 H      26  UNL26       0.0427
    206 H          -0.7490    5.5208    8.0427 H      26  UNL26       0.0241
    207 H           0.2152    6.5912    7.0137 H      26  UNL26       0.0241
    208 H           0.2152    4.8404    6.7229 H      26  UNL26       0.0241
    209 CL          4.5299   10.0187   10.9190 Cl     27  UNL27      -0.1257
    210 C           2.9874    9.1370   10.9190 C.3    27  UNL27       0.0198
    211 C           1.8229   10.1048   10.9190 C.3    27  UNL27      -0.0517
    212 H           2.9628    8.4999   10.0304 H      27  UNL27       0.0427
    213 H           2.9628    8.4999   11.8075 H      27  UNL27       0.0427
    214 H           0.8760    9.5555   10.9190 H      27  UNL27       0.0241
    215 H           1.8402   10.7460   11.8064 H      27  UNL27       0.0241
    216 H           1.8402   10.7460   10.0316 H      27  UNL27       0.0241
    217 CL          0.4917    5.9151   13.9019 Cl     28  UNL28      -0.1257
    218 C           2.2668    5.9902   13.9019 C.3    28  UNL28       0.0198
    219 C           2.8570    4.5957   13.9019 C.3    28  UNL28      -0.0517
    220 H           2.5812    6.5449   13.0133 H      28  UNL28       0.0427
    221 H           2.5812    6.5449   14.7904 H      28  UNL28       0.0427
    222 H           3.9504    4.6490   13.9019 H      28  UNL28       0.0241
    223 H           2.5472    4.0341   14.7893 H      28  UNL28       0.0241
    224 H           2.5472    4.0341   13.0145 H      28  UNL28       0.0241
    225 CL          4.5299   10.0187   16.8847 Cl     29  UNL29      -0.1257
    226 C           2.9874    9.1370   16.8847 C.3    29  UNL29       0.0198
    227 C           1.8229   10.1048   16.8847 C.3    29  UNL29      -0.0517
    228 H           2.9628    8.4999   15.9961 H      29  UNL29       0.0427
    229 H           2.9628    8.4999   17.7732 H      29  UNL29       0.0427
    230 H           0.8760    9.5555   16.8847 H      29  UNL29       0.0241
    231 H           1.8402   10.7460   17.7721 H      29  UNL29       0.0241
    232 H           1.8402   10.7460   15.9973 H      29  UNL29       0.0241
    233 CL          2.5596    6.0967   19.8537 Cl     30  UNL30      -0.1257
    234 C           0.8888    5.9522   19.2670 C.3    30  UNL30       0.0198
    235 C          -0.0908    6.1108   20.4107 C.3    30  UNL30      -0.0517
    236 H           0.7292    6.7245   18.5092 H      30  UNL30       0.0427
    237 H           0.7801    4.9714   18.7958 H      30  UNL30       0.0427
    238 H          -1.1179    6.0208   20.0427 H      30  UNL30       0.0241
    239 H           0.0622    5.3404   21.1736 H      30  UNL30       0.0241
    240 H           0.0114    7.0912   20.8873 H      30  UNL30       0.0241
    241 CL          4.5299   10.2687   22.8503 Cl     31  UNL31      -0.1257
    242 C           2.9874    9.3870   22.8503 C.3    31  UNL31       0.0198
    243 C           1.8229   10.3548   22.8503 C.3    31  UNL31      -0.0517
    244 H           2.9628    8.7499   21.9617 H      31  UNL31       0.0427
    245 H           2.9628    8.7499   23.7388 H      31  UNL31       0.0427
    246 H           0.8760    9.8055   22.8503 H      31  UNL31       0.0241
    247 H           1.8402   10.9960   23.7377 H      31  UNL31       0.0241
    248 H           1.8402   10.9960   21.9629 H      31  UNL31       0.0241
    249 CL          4.2512   10.0187   24.8005 Cl     32  UNL32      -0.1257
    250 C           2.9182    9.1370   25.5767 C.3    32  UNL32       0.0198
    251 C           1.9119   10.1048   26.1627 C.3    32  UNL32      -0.0517
    252 H           2.4498    8.4999   24.8212 H      32  UNL32       0.0427
    253 H           3.3441    8.4999   26.3569 H      32  UNL32       0.0427
    254 H           1.0937    9.5555   26.6392 H      32  UNL32       0.0241
    255 H           2.3734   10.7460   26.9209 H      32  UNL32       0.0241
    256 H           1.4803   10.7460   25.3872 H      32  UNL32       0.0241
    257 CL          4.4372   10.3667   28.8781 Cl     33  UNL33      -0.1257
    258 C           3.0702    9.2422   28.7239 C.3    33  UNL33       0.0198
    259 C           1.7570    9.9768   28.8932 C.3    33  UNL33      -0.0517
    260 H           3.1285    8.7733   27.7376 H      33  UNL33       0.0427
    261 H           3.1829    8.4673   29.4873 H      33  UNL33       0.0427
    262 H           0.9193    9.2787   28.7971 H      33  UNL33       0.0241
    263 H           1.6908   10.4486   29.8790 H      33  UNL33       0.0241
    264 H           1.6365   10.7542   28.1316 H      33  UNL33       0.0241
    265 CL         -0.4324    9.3023   31.7988 Cl     34  UNL34      -0.1257
    266 C           1.0750    8.3617   31.7988 C.3    34  UNL34       0.0198
    267 C           0.7745    6.8777   31.7988 C.3    34  UNL34      -0.0517
    268 H           1.6477    8.6419   30.9102 H      34  UNL34       0.0427
    269 H           1.6477    8.6419   32.6873 H      34  UNL34       0.0427
    270 H           1.7069    6.3041   31.7988 H      34  UNL34       0.0241
    271 H           0.2016    6.5891   32.6862 H      34  UNL34       0.0241
    272 H           0.2016    6.5891   30.9114 H      34  UNL34       0.0241
    273 CL          4.4362   13.7067   -1.0123 Cl     35  UNL35      -0.1257
    274 C           3.0717   12.5688   -1.0123 C.3    35  UNL35       0.0198
    275 C           1.7559   13.3181   -1.0123 C.3    35  UNL35      -0.0517
    276 H           3.1589   11.9372   -1.9009 H      35  UNL35       0.0427
    277 H           3.1589   11.9372   -0.1238 H      35  UNL35       0.0427
    278 H           0.9196   12.6116   -1.0123 H      35  UNL35       0.0241
    279 H           1.6608   13.9524   -0.1249 H      35  UNL35       0.0241
    280 H           1.6608   13.9524   -1.8997 H      35  UNL35       0.0241
    281 CL          2.6549   11.3533    1.9706 Cl     36  UNL36      -0.1257
    282 C           1.1124   10.4716    1.9706 C.3    36  UNL36       0.0198
    283 C          -0.0521   11.4394    1.9706 C.3    36  UNL36      -0.0517
    284 H           1.0878    9.8345    1.0820 H      36  UNL36       0.0427
    285 H           1.0878    9.8345    2.8591 H      36  UNL36       0.0427
    286 H          -0.9990   10.8901    1.9706 H      36  UNL36       0.0241
    287 H          -0.0348   12.0806    2.8580 H      36  UNL36       0.0241
    288 H          -0.0348   12.0806    1.0832 H      36  UNL36       0.0241
    289 CL          4.5299   13.1033    4.9534 Cl     37  UNL37      -0.1257
    290 C           2.9874   12.2216    4.9534 C.3    37  UNL37       0.0198
    291 C           1.8229   13.1894    4.9534 C.3    37  UNL37      -0.0517
    292 H           2.9628   11.5845    4.0648 H      37  UNL37       0.0427
    293 H           2.9628   11.5845    5.8419 H      37  UNL37       0.0427
    294 H           0.8760   12.6401    4.9534 H      37  UNL37       0.0241
    295 H           1.8402   13.8306    5.8408 H      37  UNL37       0.0241
    296 H           1.8402   13.8306    4.0660 H      37  UNL37       0.0241
    297 CL          2.7799    9.1813    7.5858 Cl     38  UNL38      -0.1257
    298 C           1.2374    9.0368    8.4556 C.3    38  UNL38       0.0198
    299 C           0.0729    9.1954    7.5008 C.3    38  UNL38      -0.0517
    300 H           1.2128    8.0559    8.9385 H      38  UNL38       0.0427
    301 H           1.2128    9.8090    9.2296 H      38  UNL38       0.0427
    302 H          -0.8740    9.1054    8.0427 H      38  UNL38       0.0241
    303 H           0.0902   10.1758    7.0137 H      38  UNL38       0.0241
    304 H           0.0902    8.4250    6.7229 H      38  UNL38       0.0241
    305 CL          4.4362   13.7067   10.9190 Cl     39  UNL39      -0.1257
    306 C           3.0717   12.5688   10.9190 C.3    39  UNL39       0.0198
    307 C           1.7559   13.3181   10.9190 C.3    39  UNL39      -0.0517
    308 H           3.1589   11.9372   10.0304 H      39  UNL39       0.0427
    309 H           3.1589   11.9372   11.8075 H      39  UNL39       0.0427
    310 H           0.9196   12.6116   10.9190 H      39  UNL39       0.0241
    311 H           1.6608   13.9524   11.8064 H      39  UNL39       0.0241
    312 H           1.6608   13.9524   10.0316 H      39  UNL39       0.0241
    313 CL          4.2965   10.7047   13.9019 Cl     40  UNL40      -0.1257
    314 C           3.8355    8.9888   13.9019 C.3    40  UNL40       0.0198
    315 C           2.3282    8.8442   13.9019 C.3    40  UNL40      -0.0517
    316 H           4.2703    8.5225   13.0133 H      40  UNL40       0.0427
    317 H           4.2703    8.5225   14.7904 H      40  UNL40       0.0427
    318 H           2.0509    7.7853   13.9019 H      40  UNL40       0.0241
    319 H           1.8854    9.3083   14.7893 H      40  UNL40       0.0241
    320 H           1.8854    9.3083   13.0145 H      40  UNL40       0.0241
    321 CL          4.4362   13.9567   16.8847 Cl     41  UNL41      -0.1257
    322 C           3.0717   12.8188   16.8847 C.3    41  UNL41       0.0198
    323 C           1.7559   13.5681   16.8847 C.3    41  UNL41      -0.0517
    324 H           3.1589   12.1872   15.9961 H      41  UNL41       0.0427
    325 H           3.1589   12.1872   17.7732 H      41  UNL41       0.0427
    326 H           0.9196   12.8616   16.8847 H      41  UNL41       0.0241
    327 H           1.6608   14.2024   17.7721 H      41  UNL41       0.0241
    328 H           1.6608   14.2024   15.9973 H      41  UNL41       0.0241
    329 CL          2.5299    9.3533   19.8675 Cl     42  UNL42      -0.1257
    330 C           0.9874    8.4716   19.8675 C.3    42  UNL42       0.0198
    331 C          -0.1771    9.4394   19.8675 C.3    42  UNL42      -0.0517
    332 H           0.9628    7.8345   18.9789 H      42  UNL42       0.0427
    333 H           0.9628    7.8345   20.7560 H      42  UNL42       0.0427
    334 H          -1.1240    8.8901   19.8675 H      42  UNL42       0.0241
    335 H          -0.1598   10.0806   20.7549 H      42  UNL42       0.0241
    336 H          -0.1598   10.0806   18.9801 H      42  UNL42       0.0241
    337 CL          4.5299   13.3533   22.8503 Cl     43  UNL43      -0.1257
    338 C           2.9874   12.4716   22.8503 C.3    43  UNL43       0.0198
    339 C           1.8229   13.4394   22.8503 C.3    43  UNL43      -0.0517
    340 H           2.9628   11.8345   21.9617 H      43  UNL43       0.0427
    341 H           2.9628   11.8345   23.7388 H      43  UNL43       0.0427
    342 H           0.8760   12.8901   22.8503 H      43  UNL43       0.0241
    343 H           1.8402   14.0806   23.7377 H      43  UNL43       0.0241
    344 H           1.8402   14.0806   21.9629 H      43  UNL43       0.0241
    345 CL          4.2821   14.0382   25.8332 Cl     44  UNL44      -0.1257
    346 C           3.1376   12.6793   25.8332 C.3    44  UNL44       0.0198
    347 C           1.7110   13.1869   25.8332 C.3    44  UNL44      -0.0517
    348 H           3.3339   12.0727   24.9446 H      44  UNL44       0.0427
    349 H           3.3339   12.0727   26.7217 H      44  UNL44       0.0427
    350 H           1.0112   12.3451   25.8332 H      44  UNL44       0.0241
    351 H           1.5065   13.7948   26.7206 H      44  UNL44       0.0241
    352 H           1.5065   13.7948   24.9458 H      44  UNL44       0.0241
    353 CL          4.5299   12.7416   28.4811 Cl     45  UNL45      -0.1257
    354 C           2.9874   12.4473   29.3123 C.3    45  UNL45       0.0198
    355 C           1.8229   12.7704   28.4000 C.3    45  UNL45      -0.0517
    356 H           2.9628   11.3970   29.6162 H      45  UNL45       0.0427
    357 H           2.9628   13.0722   30.2094 H      45  UNL45       0.0427
    358 H           0.8760   12.5870   28.9178 H      45  UNL45       0.0241
    359 H           1.8402   13.8209   28.0918 H      45  UNL45       0.0241
    360 H           1.8402   12.1479   27.4993 H      45  UNL45       0.0241
    361 CL          2.6233   11.3533   32.1577 Cl     46  UNL46      -0.1257
    362 C           1.1046   10.4716   31.8879 C.3    46  UNL46       0.0198
    363 C          -0.0420   11.4394   31.6843 C.3    46  UNL46      -0.0517
    364 H           1.2358    9.8345   31.0087 H      46  UNL46       0.0427
    365 H           0.9250    9.8345   32.7584 H      46  UNL46       0.0427
    366 H          -0.9743   10.8901   31.5187 H      46  UNL46       0.0241
    367 H          -0.1801   12.0806   32.5610 H      46  UNL46       0.0241
    368 H           0.1303   12.0806   30.8136 H      46  UNL46       0.0241
    369 CL          4.5299   16.1879   -1.0123 Cl     47  UNL47      -0.1257
    370 C           2.9874   15.3062   -1.0123 C.3    47  UNL47       0.0198
    371 C           1.8229   16.2740   -1.0123 C.3    47  UNL47      -0.0517
    372 H           2.9628   14.6691   -1.9009 H      47  UNL47       0.0427
    373 H           2.9628   14.6691   -0.1238 H      47  UNL47       0.0427
    374 H           0.8760   15.7247   -1.0123 H      47  UNL47       0.0241
    375 H           1.8402   16.9152   -0.1249 H      47  UNL47       0.0241
    376 H           1.8402   16.9152   -1.8997 H      47  UNL47       0.0241
    377 CL          2.6549   14.6879    1.9706 Cl     48  UNL48      -0.1257
    378 C           1.1124   13.8062    1.9706 C.3    48  UNL48       0.0198
    379 C          -0.0521   14.7740    1.9706 C.3    48  UNL48      -0.0517
    380 H           1.0878   13.1691    1.0820 H      48  UNL48       0.0427
    381 H           1.0878   13.1691    2.8591 H      48  UNL48       0.0427
    382 H          -0.9990   14.2247    1.9706 H      48  UNL48       0.0241
    383 H          -0.0348   15.4152    2.8580 H      48  UNL48       0.0241
    384 H          -0.0348   15.4152    1.0832 H      48  UNL48       0.0241
    385 CL          4.5299   16.3074    5.0155 Cl     49  UNL49      -0.1257
    386 C           2.9874   15.4393    4.8613 C.3    49  UNL49       0.0198
    387 C           1.8229   16.3922    5.0306 C.3    49  UNL49      -0.0517
    388 H           2.9628   14.9674    3.8750 H      49  UNL49       0.0427
    389 H           2.9628   14.6566    5.6247 H      49  UNL49       0.0427
    390 H           0.8760   15.8513    4.9345 H      49  UNL49       0.0241
    391 H           1.8402   16.8683    6.0164 H      49  UNL49       0.0241
    392 H           1.8402   17.1787    4.2690 H      49  UNL49       0.0241
    393 CL          2.6549   13.0629    7.9362 Cl     50  UNL50      -0.1257
    394 C           1.1124   12.1812    7.9362 C.3    50  UNL50       0.0198
    395 C          -0.0521   13.1490    7.9362 C.3    50  UNL50      -0.0517
    396 H           1.0878   11.5441    7.0476 H      50  UNL50       0.0427
    397 H           1.0878   11.5441    8.8247 H      50  UNL50       0.0427
    398 H          -0.9990   12.5997    7.9362 H      50  UNL50       0.0241
    399 H          -0.0348   13.7902    8.8236 H      50  UNL50       0.0241
    400 H          -0.0348   13.7902    7.0488 H      50  UNL50       0.0241
    401 CL          4.4362   16.6663   10.9190 Cl     51  UNL51      -0.1257
    402 C           3.0717   15.5284   10.9190 C.3    51  UNL51       0.0198
    403 C           1.7559   16.2776   10.9190 C.3    51  UNL51      -0.0517
    404 H           3.1589   14.8968   10.0304 H      51  UNL51       0.0427
    405 H           3.1589   14.8968   11.8075 H      51  UNL51       0.0427
    406 H           0.9196   15.5712   10.9190 H      51  UNL51       0.0241
    407 H           1.6608   16.9120   11.8064 H      51  UNL51       0.0241
    408 H           1.6608   16.9120   10.0316 H      51  UNL51       0.0241
    409 CL          1.5343   11.1010   13.9019 Cl     52  UNL52      -0.1257
    410 C           1.7510   12.8644   13.9019 C.3    52  UNL52       0.0198
    411 C           3.2233   13.2182   13.9019 C.3    52  UNL52      -0.0517
    412 H           1.2553   13.2654   13.0133 H      52  UNL52       0.0427
    413 H           1.2553   13.2654   14.7904 H      52  UNL52       0.0427
    414 H           3.3499   14.3055   13.9019 H      52  UNL52       0.0241
    415 H           3.7267   12.8206   14.7893 H      52  UNL52       0.0241
    416 H           3.7267   12.8206   13.0145 H      52  UNL52       0.0241
    417 CL          4.4362   16.6663   16.8847 Cl     53  UNL53      -0.1257
    418 C           3.0717   15.5284   16.8847 C.3    53  UNL53       0.0198
    419 C           1.7559   16.2776   16.8847 C.3    53  UNL53      -0.0517
    420 H           3.1589   14.8968   15.9961 H      53  UNL53       0.0427
    421 H           3.1589   14.8968   17.7732 H      53  UNL53       0.0427
    422 H           0.9196   15.5712   16.8847 H      53  UNL53       0.0241
    423 H           1.6608   16.9120   17.7721 H      53  UNL53       0.0241
    424 H           1.6608   16.9120   15.9973 H      53  UNL53       0.0241
    425 CL          2.9049   12.7658   20.2179 Cl     54  UNL54      -0.1257
    426 C           1.3624   12.6214   19.3481 C.3    54  UNL54       0.0198
    427 C           0.1979   12.7799   20.3029 C.3    54  UNL54      -0.0517
    428 H           1.3378   13.3936   18.5741 H      54  UNL54       0.0427
    429 H           1.3378   11.6405   18.8652 H      54  UNL54       0.0427
    430 H          -0.7490   12.6899   19.7610 H      54  UNL54       0.0241
    431 H           0.2152   12.0095   21.0808 H      54  UNL54       0.0241
    432 H           0.2152   13.7604   20.7900 H      54  UNL54       0.0241
    433 CL          4.4362   17.0413   22.8503 Cl     55  UNL55      -0.1257
    434 C           3.0717   15.9034   22.8503 C.3    55  UNL55       0.0198
    435 C           1.7559   16.6526   22.8503 C.3    55  UNL55      -0.0517
    436 H           3.1589   15.2718   21.9617 H      55  UNL55       0.0427
    437 H           3.1589   15.2718   23.7388 H      55  UNL55       0.0427
    438 H           0.9196   15.9462   22.8503 H      55  UNL55       0.0241
    439 H           1.6608   17.2870   23.7377 H      55  UNL55       0.0241
    440 H           1.6608   17.2870   21.9629 H      55  UNL55       0.0241
    441 CL          4.4362   16.7913   25.8332 Cl     56  UNL56      -0.1257
    442 C           3.0717   15.6534   25.8332 C.3    56  UNL56       0.0198
    443 C           1.7559   16.4026   25.8332 C.3    56  UNL56      -0.0517
    444 H           3.1589   15.0218   24.9446 H      56  UNL56       0.0427
    445 H           3.1589   15.0218   26.7217 H      56  UNL56       0.0427
    446 H           0.9196   15.6962   25.8332 H      56  UNL56       0.0241
    447 H           1.6608   17.0370   26.7206 H      56  UNL56       0.0241
    448 H           1.6608   17.0370   24.9458 H      56  UNL56       0.0241
    449 CL          4.5299   16.3129   28.8160 Cl     57  UNL57      -0.1257
    450 C           2.9874   15.4312   28.8160 C.3    57  UNL57       0.0198
    451 C           1.8229   16.3990   28.8160 C.3    57  UNL57      -0.0517
    452 H           2.9628   14.7941   27.9274 H      57  UNL57       0.0427
    453 H           2.9628   14.7941   29.7045 H      57  UNL57       0.0427
    454 H           0.8760   15.8497   28.8160 H      57  UNL57       0.0241
    455 H           1.8402   17.0402   29.7034 H      57  UNL57       0.0241
    456 H           1.8402   17.0402   27.9286 H      57  UNL57       0.0241
    457 CL          1.9566   15.2643   33.3835 Cl     58  UNL58      -0.1257
    458 C           0.6394   14.6117   32.3857 C.3    58  UNL58       0.0198
    459 C           1.1902   13.9923   31.1186 C.3    58  UNL58      -0.0517
    460 H           0.1025   13.8672   32.9803 H      58  UNL58       0.0427
    461 H          -0.0447   15.4321   32.1512 H      58  UNL58       0.0427
    462 H           0.3740   13.5923   30.5086 H      58  UNL58       0.0241
    463 H           1.7287   14.7321   30.5172 H      58  UNL58       0.0241
    464 H           1.8758   13.1691   31.3452 H      58  UNL58       0.0241
    465 CL          4.4362   19.3758   -1.0123 Cl     59  UNL59      -0.1257
    466 C           3.0717   18.2380   -1.0123 C.3    59  UNL59       0.0198
    467 C           1.7559   18.9872   -1.0123 C.3    59  UNL59      -0.0517
    468 H           3.1589   17.6064   -1.9009 H      59  UNL59       0.0427
    469 H           3.1589   17.6064   -0.1238 H      59  UNL59       0.0427
    470 H           0.9196   18.2808   -1.0123 H      59  UNL59       0.0241
    471 H           1.6608   19.6215   -0.1249 H      59  UNL59       0.0241
    472 H           1.6608   19.6215   -1.8997 H      59  UNL59       0.0241
    473 CL          3.9049   18.0224    1.9706 Cl     60  UNL60      -0.1257
    474 C           2.3624   17.1407    1.9706 C.3    60  UNL60       0.0198
    475 C           1.1979   18.1085    1.9706 C.3    60  UNL60      -0.0517
    476 H           2.3378   16.5036    1.0820 H      60  UNL60       0.0427
    477 H           2.3378   16.5036    2.8591 H      60  UNL60       0.0427
    478 H           0.2510   17.5592    1.9706 H      60  UNL60       0.0241
    479 H           1.2152   18.7497    2.8580 H      60  UNL60       0.0241
    480 H           1.2152   18.7497    1.0832 H      60  UNL60       0.0241
    481 CL          4.4362   19.3758    4.9534 Cl     61  UNL61      -0.1257
    482 C           3.0717   18.2380    4.9534 C.3    61  UNL61       0.0198
    483 C           1.7559   18.9872    4.9534 C.3    61  UNL61      -0.0517
    484 H           3.1589   17.6064    4.0648 H      61  UNL61       0.0427
    485 H           3.1589   17.6064    5.8419 H      61  UNL61       0.0427
    486 H           0.9196   18.2808    4.9534 H      61  UNL61       0.0241
    487 H           1.6608   19.6215    5.8408 H      61  UNL61       0.0241
    488 H           1.6608   19.6215    4.0660 H      61  UNL61       0.0241
    489 CL          3.0299   16.0224    7.9362 Cl     62  UNL62      -0.1257
    490 C           1.4874   15.1407    7.9362 C.3    62  UNL62       0.0198
    491 C           0.3229   16.1085    7.9362 C.3    62  UNL62      -0.0517
    492 H           1.4628   14.5036    7.0476 H      62  UNL62       0.0427
    493 H           1.4628   14.5036    8.8247 H      62  UNL62       0.0427
    494 H          -0.6240   15.5592    7.9362 H      62  UNL62       0.0241
    495 H           0.3402   16.7497    8.8236 H      62  UNL62       0.0241
    496 H           0.3402   16.7497    7.0488 H      62  UNL62       0.0241
    497 CL          4.5299   19.0224   10.9190 Cl     63  UNL63      -0.1257
    498 C           2.9874   18.1407   10.9190 C.3    63  UNL63       0.0198
    499 C           1.8229   19.1085   10.9190 C.3    63  UNL63      -0.0517
    500 H           2.9628   17.5036   10.0304 H      63  UNL63       0.0427
    501 H           2.9628   17.5036   11.8075 H      63  UNL63       0.0427
    502 H           0.8760   18.5592   10.9190 H      63  UNL63       0.0241
    503 H           1.8402   19.7497   11.8064 H      63  UNL63       0.0241
    504 H           1.8402   19.7497   10.0316 H      63  UNL63       0.0241
    505 CL          1.1850   15.6112   13.9019 Cl     64  UNL64      -0.1257
    506 C           0.3207   17.1635   13.9019 C.3    64  UNL64       0.0198
    507 C           1.3015   18.3171   13.9019 C.3    64  UNL64      -0.0517
    508 H          -0.3161   17.1953   13.0133 H      64  UNL64       0.0427
    509 H          -0.3161   17.1953   14.7904 H      64  UNL64       0.0427
    510 H           0.7628   19.2701   13.9019 H      64  UNL64       0.0241
    511 H           1.9424   18.2926   14.7893 H      64  UNL64       0.0241
    512 H           1.9424   18.2926   13.0145 H      64  UNL64       0.0241
    513 CL          4.5299   19.0224   16.8847 Cl     65  UNL65      -0.1257
    514 C           2.9874   18.1407   16.8847 C.3    65  UNL65       0.0198
    515 C           1.8229   19.1085   16.8847 C.3    65  UNL65      -0.0517
    516 H           2.9628   17.5036   15.9961 H      65  UNL65       0.0427
    517 H           2.9628   17.5036   17.7732 H      65  UNL65       0.0427
    518 H           0.8760   18.5592   16.8847 H      65  UNL65       0.0241
    519 H           1.8402   19.7497   17.7721 H      65  UNL65       0.0241
    520 H           1.8402   19.7497   15.9973 H      65  UNL65       0.0241
    521 CL          2.7799   16.1474   19.8675 Cl     66  UNL66      -0.1257
    522 C           1.2374   15.2657   19.8675 C.3    66  UNL66       0.0198
    523 C           0.0729   16.2335   19.8675 C.3    66  UNL66      -0.0517
    524 H           1.2128   14.6286   18.9789 H      66  UNL66       0.0427
    525 H           1.2128   14.6286   20.7560 H      66  UNL66       0.0427
    526 H          -0.8740   15.6842   19.8675 H      66  UNL66       0.0241
    527 H           0.0902   16.8747   20.7549 H      66  UNL66       0.0241
    528 H           0.0902   16.8747   18.9801 H      66  UNL66       0.0241
    529 CL          4.4362   19.3758   22.8503 Cl     67  UNL67      -0.1257
    530 C           3.0717   18.2380   22.8503 C.3    67  UNL67       0.0198
    531 C           1.7559   18.9872   22.8503 C.3    67  UNL67      -0.0517
    532 H           3.1589   17.6064   21.9617 H      67  UNL67       0.0427
    533 H           3.1589   17.6064   23.7388 H      67  UNL67       0.0427
    534 H           0.9196   18.2808   22.8503 H      67  UNL67       0.0241
    535 H           1.6608   19.6215   23.7377 H      67  UNL67       0.0241
    536 H           1.6608   19.6215   21.9629 H      67  UNL67       0.0241
    537 CL          4.2821   19.7074   25.8332 Cl     68  UNL68      -0.1257
    538 C           3.1376   18.3484   25.8332 C.3    68  UNL68       0.0198
    539 C           1.7110   18.8560   25.8332 C.3    68  UNL68      -0.0517
    540 H           3.3339   17.7418   24.9446 H      68  UNL68       0.0427
    541 H           3.3339   17.7418   26.7217 H      68  UNL68       0.0427
    542 H           1.0112   18.0142   25.8332 H      68  UNL68       0.0241
    543 H           1.5065   19.4640   26.7206 H      68  UNL68       0.0241
    544 H           1.5065   19.4640   24.9458 H      68  UNL68       0.0241
    545 CL          4.4362   19.3758   28.8160 Cl     69  UNL69      -0.1257
    546 C           3.0717   18.2380   28.8160 C.3    69  UNL69       0.0198
    547 C           1.7559   18.9872   28.8160 C.3    69  UNL69      -0.0517
    548 H           3.1589   17.6064   27.9274 H      69  UNL69       0.0427
    549 H           3.1589   17.6064   29.7045 H      69  UNL69       0.0427
    550 H           0.9196   18.2808   28.8160 H      69  UNL69       0.0241
    551 H           1.6608   19.6215   29.7034 H      69  UNL69       0.0241
    552 H           1.6608   19.6215   27.9286 H      69  UNL69       0.0241
    553 CL          3.0299   18.6474   31.7988 Cl     70  UNL70      -0.1257
    554 C           1.4874   17.7657   31.7988 C.3    70  UNL70       0.0198
    555 C           0.3229   18.7335   31.7988 C.3    70  UNL70      -0.0517
    556 H           1.4628   17.1286   30.9102 H      70  UNL70       0.0427
    557 H           1.4628   17.1286   32.6873 H      70  UNL70       0.0427
    558 H          -0.6240   18.1842   31.7988 H      70  UNL70       0.0241
    559 H           0.3402   19.3747   32.6862 H      70  UNL70       0.0241
    560 H           0.3402   19.3747   30.9114 H      70  UNL70       0.0241
    561 CL          9.3141    0.1184    1.9706 Cl     71  UNL71      -0.1257
    562 C           7.9496   -1.0195    1.9706 C.3    71  UNL71       0.0198
    563 C           6.6338   -0.2702    1.9706 C.3    71  UNL71      -0.0517
    564 H           8.0368   -1.6511    1.0820 H      71  UNL71       0.0427
    565 H           8.0368   -1.6511    2.8591 H      71  UNL71       0.0427
    566 H           5.7975   -0.9767    1.9706 H      71  UNL71       0.0241
    567 H           6.5387    0.3641    2.8580 H      71  UNL71       0.0241
    568 H           6.5387    0.3641    1.0832 H      71  UNL71       0.0241
    569 CL          9.3150   -0.2820   13.1980 Cl     72  UNL72      -0.1257
    570 C           7.9483   -0.4265   14.3241 C.3    72  UNL72       0.0198
    571 C           6.6348   -0.2679   13.5877 C.3    72  UNL72      -0.0517
    572 H           8.0086   -1.4074   14.8039 H      72  UNL72       0.0427
    573 H           8.0595    0.3457   15.0905 H      72  UNL72       0.0427
    574 H           5.7973   -0.3579   14.2868 H      72  UNL72       0.0241
    575 H           6.5667    0.7125   13.1050 H      72  UNL72       0.0241
    576 H           6.5158   -1.0383   12.8188 H      72  UNL72       0.0241
    577 CL          9.3141    0.3684   25.8332 Cl     73  UNL73      -0.1257
    578 C           7.9496   -0.7695   25.8332 C.3    73  UNL73       0.0198
    579 C           6.6338   -0.0202   25.8332 C.3    73  UNL73      -0.0517
    580 H           8.0368   -1.4011   24.9446 H      73  UNL73       0.0427
    581 H           8.0368   -1.4011   26.7217 H      73  UNL73       0.0427
    582 H           5.7975   -0.7267   25.8332 H      73  UNL73       0.0241
    583 H           6.5387    0.6141   26.7206 H      73  UNL73       0.0241
    584 H           6.5387    0.6141   24.9458 H      73  UNL73       0.0241
    585 CL          9.4079    3.3496    1.9706 Cl     74  UNL74      -0.1257
    586 C           7.8654    2.4679    1.9706 C.3    74  UNL74       0.0198
    587 C           6.7009    3.4357    1.9706 C.3    74  UNL74      -0.0517
    588 H           7.8408    1.8308    1.0820 H      74  UNL74       0.0427
    589 H           7.8408    1.8308    2.8591 H      74  UNL74       0.0427
    590 H           5.7540    2.8864    1.9706 H      74  UNL74       0.0241
    591 H           6.7182    4.0769    2.8580 H      74  UNL74       0.0241
    592 H           6.7182    4.0769    1.0832 H      74  UNL74       0.0241
    593 CL          9.4079   -0.9462    5.1165 Cl     75  UNL75      -0.1257
    594 C           7.8654   -0.1630    4.7116 C.3    75  UNL75       0.0198
    595 C           6.7009   -1.0227    5.1560 C.3    75  UNL75      -0.0517
    596 H           7.8408    0.8110    5.2085 H      75  UNL75       0.0427
    597 H           7.8408   -0.0049    3.6298 H      75  UNL75       0.0427
    598 H           5.7540   -0.5348    4.9038 H      75  UNL75       0.0241
    599 H           6.7182   -1.9998    4.6621 H      75  UNL75       0.0241
    600 H           6.7182   -1.1849    6.2387 H      75  UNL75       0.0241
    601 CL          9.3151    3.6976    7.9983 Cl     76  UNL76      -0.1257
    602 C           7.9482    2.5731    7.8441 C.3    76  UNL76       0.0198
    603 C           6.6350    3.3076    8.0134 C.3    76  UNL76      -0.0517
    604 H           8.0065    2.1042    6.8578 H      76  UNL76       0.0427
    605 H           8.0608    1.7982    8.6075 H      76  UNL76       0.0427
    606 H           5.7972    2.6095    7.9173 H      76  UNL76       0.0241
    607 H           6.5687    3.7795    8.9993 H      76  UNL76       0.0241
    608 H           6.5145    4.0850    7.2518 H      76  UNL76       0.0241
    609 CL          9.3141   -0.2970    8.7940 Cl     77  UNL77      -0.1257
    610 C           7.9496   -1.4349    8.7940 C.3    77  UNL77       0.0198
    611 C           6.6338   -0.6857    8.7940 C.3    77  UNL77      -0.0517
    612 H           8.0368   -2.0665    7.9054 H      77  UNL77       0.0427
    613 H           8.0368   -2.0665    9.6825 H      77  UNL77       0.0427
    614 H           5.7975   -1.3921    8.7940 H      77  UNL77       0.0241
    615 H           6.5387   -0.0513    9.6814 H      77  UNL77       0.0241
    616 H           6.5387   -0.0513    7.9066 H      77  UNL77       0.0241
    617 CL          9.3150    2.6775   13.1980 Cl     78  UNL78      -0.1257
    618 C           7.9483    2.5331   14.3241 C.3    78  UNL78       0.0198
    619 C           6.6348    2.6916   13.5877 C.3    78  UNL78      -0.0517
    620 H           8.0086    1.5521   14.8039 H      78  UNL78       0.0427
    621 H           8.0595    3.3052   15.0905 H      78  UNL78       0.0427
    622 H           5.7973    2.6017   14.2868 H      78  UNL78       0.0241
    623 H           6.5667    3.6721   13.1050 H      78  UNL78       0.0241
    624 H           6.5158    1.9213   12.8188 H      78  UNL78       0.0241
    625 CL          9.4079   -0.4838   16.5301 Cl     79  UNL79      -0.1257
    626 C           7.8654   -0.5380   17.4102 C.3    79  UNL79       0.0198
    627 C           6.7009   -0.4785   16.4442 C.3    79  UNL79      -0.0517
    628 H           7.8408   -1.4641   17.9914 H      79  UNL79       0.0427
    629 H           7.8408    0.3096   18.1007 H      79  UNL79       0.0427
    630 H           5.7540   -0.5123   16.9925 H      79  UNL79       0.0241
    631 H           6.7182    0.4466   15.8588 H      79  UNL79       0.0241
    632 H           6.7182   -1.3248   15.7496 H      79  UNL79       0.0241
    633 CL          9.3151    3.1976   19.9304 Cl     80  UNL80      -0.1257
    634 C           7.9482    2.0731   20.0846 C.3    80  UNL80       0.0198
    635 C           6.6350    2.8076   19.9153 C.3    80  UNL80      -0.0517
    636 H           8.0608    1.2982   19.3211 H      80  UNL80       0.0427
    637 H           8.0065    1.6041   21.0708 H      80  UNL80       0.0427
    638 H           5.7972    2.1095   20.0114 H      80  UNL80       0.0241
    639 H           6.5145    3.5850   20.6769 H      80  UNL80       0.0241
    640 H           6.5687    3.2795   18.9295 H      80  UNL80       0.0241
    641 CL          9.2370   -1.5613   21.6331 Cl     81  UNL81      -0.1257
    642 C           7.9877   -0.9787   20.5121 C.3    81  UNL81       0.0198
    643 C           6.6067   -1.2269   21.0811 C.3    81  UNL81      -0.0517
    644 H           8.1537    0.0896   20.3474 H      81  UNL81       0.0427
    645 H           8.1161   -1.5037   19.5614 H      81  UNL81       0.0427
    646 H           5.8419   -0.8659   20.3860 H      81  UNL81       0.0241
    647 H           6.4326   -2.2949   21.2482 H      81  UNL81       0.0241
    648 H           6.4702   -0.7036   22.0332 H      81  UNL81       0.0241
    649 CL          9.3141    3.7030   25.8332 Cl     82  UNL82      -0.1257
    650 C           7.9496    2.5651   25.8332 C.3    82  UNL82       0.0198
    651 C           6.6338    3.3143   25.8332 C.3    82  UNL82      -0.0517
    652 H           8.0368    1.9335   24.9446 H      82  UNL82       0.0427
    653 H           8.0368    1.9335   26.7217 H      82  UNL82       0.0427
    654 H           5.7975    2.6079   25.8332 H      82  UNL82       0.0241
    655 H           6.5387    3.9487   26.7206 H      82  UNL82       0.0241
    656 H           6.5387    3.9487   24.9458 H      82  UNL82       0.0241
    657 CL          9.4079   -0.9462   28.9791 Cl     83  UNL83      -0.1257
    658 C           7.8654   -0.1630   28.5742 C.3    83  UNL83       0.0198
    659 C           6.7009   -1.0227   29.0186 C.3    83  UNL83      -0.0517
    660 H           7.8408    0.8110   29.0711 H      83  UNL83       0.0427
    661 H           7.8408   -0.0049   27.4924 H      83  UNL83       0.0427
    662 H           5.7540   -0.5348   28.7664 H      83  UNL83       0.0241
    663 H           6.7182   -1.9998   28.5247 H      83  UNL83       0.0241
    664 H           6.7182   -1.1849   30.1013 H      83  UNL83       0.0241
    665 CL          9.3151    3.6976   31.8609 Cl     84  UNL84      -0.1257
    666 C           7.9482    2.5731   31.7067 C.3    84  UNL84       0.0198
    667 C           6.6350    3.3076   31.8760 C.3    84  UNL84      -0.0517
    668 H           8.0065    2.1042   30.7204 H      84  UNL84       0.0427
    669 H           8.0608    1.7982   32.4701 H      84  UNL84       0.0427
    670 H           5.7972    2.6095   31.7799 H      84  UNL84       0.0241
    671 H           6.5687    3.7795   32.8619 H      84  UNL84       0.0241
    672 H           6.5145    4.0850   31.1144 H      84  UNL84       0.0241
    673 CL          9.4079    6.6787    2.0327 Cl     85  UNL85      -0.1257
    674 C           7.8654    5.8105    1.8785 C.3    85  UNL85       0.0198
    675 C           6.7009    6.7634    2.0477 C.3    85  UNL85      -0.0517
    676 H           7.8408    5.3387    0.8922 H      85  UNL85       0.0427
    677 H           7.8408    5.0279    2.6419 H      85  UNL85       0.0427
    678 H           5.7540    6.2226    1.9517 H      85  UNL85       0.0241
    679 H           6.7182    7.2396    3.0336 H      85  UNL85       0.0241
    680 H           6.7182    7.5499    1.2862 H      85  UNL85       0.0241
    681 CL          6.1167    6.0029    4.9534 Cl     86  UNL86      -0.1257
    682 C           7.5972    5.0207    4.9534 C.3    86  UNL86       0.0198
    683 C           7.2556    3.5456    4.9534 C.3    86  UNL86      -0.0517
    684 H           8.1775    5.2849    4.0648 H      86  UNL86       0.0427
    685 H           8.1775    5.2849    5.8419 H      86  UNL86       0.0427
    686 H           8.1716    2.9463    4.9534 H      86  UNL86       0.0241
    687 H           6.6749    3.2731    5.8408 H      86  UNL86       0.0241
    688 H           6.6749    3.2731    4.0660 H      86  UNL86       0.0241
    689 CL          9.4079    6.0121    7.5858 Cl     87  UNL87      -0.1257
    690 C           7.8654    5.8677    8.4556 C.3    87  UNL87       0.0198
    691 C           6.7009    6.0262    7.5008 C.3    87  UNL87      -0.0517
    692 H           7.8408    4.8867    8.9385 H      87  UNL87       0.0427
    693 H           7.8408    6.6398    9.2296 H      87  UNL87       0.0427
    694 H           5.7540    5.9362    8.0427 H      87  UNL87       0.0241
    695 H           6.7182    7.0067    7.0137 H      87  UNL87       0.0241
    696 H           6.7182    5.2558    6.7229 H      87  UNL87       0.0241
    697 CL          6.4122    1.6498    9.0875 Cl     88  UNL88      -0.1257
    698 C           6.6290    1.9386   10.8271 C.3    88  UNL88       0.0198
    699 C           8.1012    1.9966   11.1761 C.3    88  UNL88      -0.0517
    700 H           6.1333    2.8809   11.0771 H      88  UNL88       0.0427
    701 H           6.1333    1.1278   11.3682 H      88  UNL88       0.0427
    702 H           8.2278    2.1747   12.2487 H      88  UNL88       0.0241
    703 H           8.6046    1.0560   10.9292 H      88  UNL88       0.0241
    704 H           8.6046    2.8069   10.6385 H      88  UNL88       0.0241
    705 CL          9.2733    6.8997   13.4818 Cl     89  UNL89      -0.1257
    706 C           7.9563    5.7841   13.9034 C.3    89  UNL89       0.0198
    707 C           6.6316    6.5166   13.9404 C.3    89  UNL89      -0.0517
    708 H           7.9379    4.9859   13.1560 H      89  UNL89       0.0427
    709 H           8.1848    5.3454   14.8787 H      89  UNL89       0.0427
    710 H           5.8248    5.8240   14.2006 H      89  UNL89       0.0241
    711 H           6.6420    7.3173   14.6872 H      89  UNL89       0.0241
    712 H           6.3954    6.9582   12.9667 H      89  UNL89       0.0241
    713 CL          6.6418    4.3247   14.8298 Cl     90  UNL90      -0.1257
    714 C           6.8966    3.7226   16.4819 C.3    90  UNL90       0.0198
    715 C           7.0889    4.8764   17.4434 C.3    90  UNL90      -0.0517
    716 H           6.0242    3.1253   16.7617 H      90  UNL90       0.0427
    717 H           7.7769    3.0739   16.4727 H      90  UNL90       0.0427
    718 H           7.2453    4.4989   18.4590 H      90  UNL90       0.0241
    719 H           7.9613    5.4791   17.1702 H      90  UNL90       0.0241
    720 H           6.2109    5.5303   17.4588 H      90  UNL90       0.0241
    721 CL          9.3141    5.5375   19.8675 Cl     91  UNL91      -0.1257
    722 C           7.9496    4.3997   19.8675 C.3    91  UNL91       0.0198
    723 C           6.6338    5.1489   19.8675 C.3    91  UNL91      -0.0517
    724 H           8.0368    3.7681   18.9789 H      91  UNL91       0.0427
    725 H           8.0368    3.7681   20.7560 H      91  UNL91       0.0427
    726 H           5.7975    4.4425   19.8675 H      91  UNL91       0.0241
    727 H           6.5387    5.7833   20.7549 H      91  UNL91       0.0241
    728 H           6.5387    5.7833   18.9801 H      91  UNL91       0.0241
    729 CL          8.2272    4.2222   22.1787 Cl     92  UNL92      -0.1257
    730 C           8.0781    2.5600   22.7882 C.3    92  UNL92       0.0198
    731 C           6.6211    2.1901   22.9702 C.3    92  UNL92      -0.0517
    732 H           8.5613    1.8923   22.0694 H      92  UNL92       0.0427
    733 H           8.6157    2.4995   23.7386 H      92  UNL92       0.0427
    734 H           6.5362    1.1654   23.3458 H      92  UNL92       0.0241
    735 H           6.1303    2.8541   23.6894 H      92  UNL92       0.0241
    736 H           6.0760    2.2476   22.0223 H      92  UNL92       0.0241
    737 CL          9.4079    6.3091   25.8332 Cl     93  UNL93      -0.1257
    738 C           7.8654    5.4274   25.8332 C.3    93  UNL93       0.0198
    739 C           6.7009    6.3952   25.8332 C.3    93  UNL93      -0.0517
    740 H           7.8408    4.7903   24.9446 H      93  UNL93       0.0427
    741 H           7.8408    4.7903   26.7217 H      93  UNL93       0.0427
    742 H           5.7540    5.8459   25.8332 H      93  UNL93       0.0241
    743 H           6.7182    7.0364   26.7206 H      93  UNL93       0.0241
    744 H           6.7182    7.0364   24.9458 H      93  UNL93       0.0241
    745 CL          5.8430    5.7604   28.8160 Cl     94  UNL94      -0.1257
    746 C           7.4725    5.0523   28.8160 C.3    94  UNL94       0.0198
    747 C           7.3941    3.5401   28.8160 C.3    94  UNL94      -0.0517
    748 H           7.9977    5.4138   27.9274 H      94  UNL94       0.0427
    749 H           7.9977    5.4138   29.7045 H      94  UNL94       0.0427
    750 H           8.4008    3.1103   28.8160 H      94  UNL94       0.0241
    751 H           6.8700    3.1703   29.7034 H      94  UNL94       0.0241
    752 H           6.8700    3.1703   27.9286 H      94  UNL94       0.0241
    753 CL          9.4079    6.2621   31.4484 Cl     95  UNL95      -0.1257
    754 C           7.8654    6.1177   32.3182 C.3    95  UNL95       0.0198
    755 C           6.7009    6.2762   31.3634 C.3    95  UNL95      -0.0517
    756 H           7.8408    5.1367   32.8011 H      95  UNL95       0.0427
    757 H           7.8408    6.8898   33.0922 H      95  UNL95       0.0427
    758 H           5.7540    6.1862   31.9053 H      95  UNL95       0.0241
    759 H           6.7182    7.2567   30.8763 H      95  UNL95       0.0241
    760 H           6.7182    5.5058   30.5855 H      95  UNL95       0.0241
    761 CL          9.4079   10.0187    1.9706 Cl     96  UNL96      -0.1257
    762 C           7.8654    9.1370    1.9706 C.3    96  UNL96       0.0198
    763 C           6.7009   10.1048    1.9706 C.3    96  UNL96      -0.0517
    764 H           7.8408    8.4999    1.0820 H      96  UNL96       0.0427
    765 H           7.8408    8.4999    2.8591 H      96  UNL96       0.0427
    766 H           5.7540    9.5555    1.9706 H      96  UNL96       0.0241
    767 H           6.7182   10.7460    2.8580 H      96  UNL96       0.0241
    768 H           6.7182   10.7460    1.0832 H      96  UNL96       0.0241
    769 CL          9.2824    8.0187    4.2467 Cl     97  UNL97      -0.1257
    770 C           7.8342    7.1370    4.7779 C.3    97  UNL97       0.0198
    771 C           6.7409    8.1048    5.1789 C.3    97  UNL97      -0.0517
    772 H           7.5051    6.4999    3.9521 H      97  UNL97       0.0427
    773 H           8.1171    6.4999    5.6205 H      97  UNL97       0.0427
    774 H           5.8519    7.5555    5.5050 H      97  UNL97       0.0241
    775 H           7.0628    8.7460    6.0061 H      97  UNL97       0.0241
    776 H           6.4516    8.7460    4.3398 H      97  UNL97       0.0241
    777 CL          9.4079    9.7687    7.9362 Cl     98  UNL98      -0.1257
    778 C           7.8654    8.8870    7.9362 C.3    98  UNL98       0.0198
    779 C           6.7009    9.8548    7.9362 C.3    98  UNL98      -0.0517
    780 H           7.8408    8.2499    7.0476 H      98  UNL98       0.0427
    781 H           7.8408    8.2499    8.8247 H      98  UNL98       0.0427
    782 H           5.7540    9.3055    7.9362 H      98  UNL98       0.0241
    783 H           6.7182   10.4960    8.8236 H      98  UNL98       0.0241
    784 H           6.7182   10.4960    7.0488 H      98  UNL98       0.0241
    785 CL          7.9424    7.5470   11.6783 Cl     99  UNL99      -0.1257
    786 C           8.1626    5.9064   11.0330 C.3    99  UNL99       0.0198
    787 C           6.8216    5.2653   10.7441 C.3    99  UNL99      -0.0517
    788 H           8.7623    5.9799   10.1213 H      99  UNL99       0.0427
    789 H           8.7197    5.3247   11.7727 H      99  UNL99       0.0427
    790 H           6.9642    4.2552   10.3470 H      99  UNL99       0.0241
    791 H           6.2154    5.1874   11.6526 H      99  UNL99       0.0241
    792 H           6.2578    5.8418   10.0033 H      99  UNL99       0.0241
    793 CL          9.1291   10.0187   12.8692 Cl    100  UNL100     -0.1257
    794 C           7.7961    9.1370   13.6454 C.3   100  UNL100      0.0198
    795 C           6.7898   10.1048   14.2314 C.3   100  UNL100     -0.0517
    796 H           7.3277    8.4999   12.8899 H     100  UNL100      0.0427
    797 H           8.2220    8.4999   14.4256 H     100  UNL100      0.0427
    798 H           5.9716    9.5555   14.7079 H     100  UNL100      0.0241
    799 H           7.2514   10.7460   14.9896 H     100  UNL100      0.0241
    800 H           6.3582   10.7460   13.4559 H     100  UNL100      0.0241
    801 CL          6.0844    7.7985   18.4037 Cl    101  UNL101     -0.1257
    802 C           7.1475    7.0918   17.1680 C.3   101  UNL101      0.0198
    803 C           7.6644    8.1665   16.2350 C.3   101  UNL101     -0.0517
    804 H           7.9744    6.5916   17.6800 H     101  UNL101      0.0427
    805 H           6.5726    6.3426   16.6165 H     101  UNL101      0.0427
    806 H           8.3184    7.7248   15.4764 H     101  UNL101      0.0241
    807 H           6.8421    8.6717   15.7178 H     101  UNL101      0.0241
    808 H           8.2421    8.9204   16.7800 H     101  UNL101      0.0241
    809 CL          4.6072    5.7408   20.6579 Cl    102  UNL102     -0.1257
    810 C           4.8751    7.4859   20.4590 C.3   102  UNL102      0.0198
    811 C           4.1129    8.0064   19.2586 C.3   102  UNL102     -0.0517
    812 H           4.5449    7.9845   21.3747 H     102  UNL102      0.0427
    813 H           5.9494    7.6509   20.3383 H     102  UNL102      0.0427
    814 H           4.2821    9.0816   19.1417 H     102  UNL102      0.0241
    815 H           4.4386    7.5122   18.3374 H     102  UNL102      0.0241
    816 H           3.0359    7.8455   19.3725 H     102  UNL102      0.0241
    817 CL          6.2872    3.9204   22.2110 Cl    103  UNL103     -0.1257
    818 C           6.5040    5.5760   22.8182 C.3   103  UNL103      0.0198
    819 C           7.9762    5.9081   22.9401 C.3   103  UNL103     -0.0517
    820 H           6.0083    6.2584   22.1221 H     103  UNL103      0.0427
    821 H           6.0083    5.6465   23.7905 H     103  UNL103      0.0427
    822 H           8.1028    6.9289   23.3145 H     103  UNL103      0.0241
    823 H           8.4796    5.2292   23.6363 H     103  UNL103      0.0241
    824 H           8.4796    5.8404   21.9700 H     103  UNL103      0.0241
    825 CL          9.4391    9.2471   25.8332 Cl    104  UNL104     -0.1257
    826 C           8.0746    8.1092   25.8332 C.3   104  UNL104      0.0198
    827 C           6.7588    8.8585   25.8332 C.3   104  UNL104     -0.0517
    828 H           8.1618    7.4777   24.9446 H     104  UNL104      0.0427
    829 H           8.1618    7.4777   26.7217 H     104  UNL104      0.0427
    830 H           5.9225    8.1521   25.8332 H     104  UNL104      0.0241
    831 H           6.6637    9.4928   26.7206 H     104  UNL104      0.0241
    832 H           6.6637    9.4928   24.9458 H     104  UNL104      0.0241
    833 CL          9.3141    8.3721   28.8160 Cl    105  UNL105     -0.1257
    834 C           7.9496    7.2342   28.8160 C.3   105  UNL105      0.0198
    835 C           6.6338    7.9835   28.8160 C.3   105  UNL105     -0.0517
    836 H           8.0368    6.6027   27.9274 H     105  UNL105      0.0427
    837 H           8.0368    6.6027   29.7045 H     105  UNL105      0.0427
    838 H           5.7975    7.2771   28.8160 H     105  UNL105      0.0241
    839 H           6.5387    8.6178   29.7034 H     105  UNL105      0.0241
    840 H           6.5387    8.6178   27.9286 H     105  UNL105      0.0241
    841 CL          9.4079   10.0187   31.7988 Cl    106  UNL106     -0.1257
    842 C           7.8654    9.1370   31.7988 C.3   106  UNL106      0.0198
    843 C           6.7009   10.1048   31.7988 C.3   106  UNL106     -0.0517
    844 H           7.8408    8.4999   30.9102 H     106  UNL106      0.0427
    845 H           7.8408    8.4999   32.6873 H     106  UNL106      0.0427
    846 H           5.7540    9.5555   31.7988 H     106  UNL106      0.0241
    847 H           6.7182   10.7460   32.6862 H     106  UNL106      0.0241
    848 H           6.7182   10.7460   30.9114 H     106  UNL106      0.0241
    849 CL          9.4079   11.3533   -1.0123 Cl    107  UNL107     -0.1257
    850 C           7.8654   10.4716   -1.0123 C.3   107  UNL107      0.0198
    851 C           6.7009   11.4394   -1.0123 C.3   107  UNL107     -0.0517
    852 H           7.8408    9.8345   -1.9009 H     107  UNL107      0.0427
    853 H           7.8408    9.8345   -0.1238 H     107  UNL107      0.0427
    854 H           5.7540   10.8901   -1.0123 H     107  UNL107      0.0241
    855 H           6.7182   12.0806   -0.1249 H     107  UNL107      0.0241
    856 H           6.7182   12.0806   -1.8997 H     107  UNL107      0.0241
    857 CL          9.2830   13.7011    2.3294 Cl    108  UNL108     -0.1257
    858 C           7.9419   12.5674    2.0597 C.3   108  UNL108      0.0198
    859 C           6.6437   13.3198    1.8560 C.3   108  UNL108     -0.0517
    860 H           8.1824   11.9631    1.1805 H     108  UNL108      0.0427
    861 H           7.8764   11.9088    2.9302 H     108  UNL108      0.0427
    862 H           5.8218   12.6159    1.6905 H     108  UNL108      0.0241
    863 H           6.3956   13.9270    2.7328 H     108  UNL108      0.0241
    864 H           6.7012   13.9813    0.9853 H     108  UNL108      0.0241
    865 CL          9.4079   11.3533    4.9534 Cl    109  UNL109     -0.1257
    866 C           7.8654   10.4716    4.9534 C.3   109  UNL109      0.0198
    867 C           6.7009   11.4394    4.9534 C.3   109  UNL109     -0.0517
    868 H           7.8408    9.8345    4.0648 H     109  UNL109      0.0427
    869 H           7.8408    9.8345    5.8419 H     109  UNL109      0.0427
    870 H           5.7540   10.8901    4.9534 H     109  UNL109      0.0241
    871 H           6.7182   12.0806    5.8408 H     109  UNL109      0.0241
    872 H           6.7182   12.0806    4.0660 H     109  UNL109      0.0241
    873 CL          9.4079   12.8533    7.9362 Cl    110  UNL110     -0.1257
    874 C           7.8654   11.9716    7.9362 C.3   110  UNL110      0.0198
    875 C           6.7009   12.9394    7.9362 C.3   110  UNL110     -0.0517
    876 H           7.8408   11.3345    7.0476 H     110  UNL110      0.0427
    877 H           7.8408   11.3345    8.8247 H     110  UNL110      0.0427
    878 H           5.7540   12.3901    7.9362 H     110  UNL110      0.0241
    879 H           6.7182   13.5806    8.8236 H     110  UNL110      0.0241
    880 H           6.7182   13.5806    7.0488 H     110  UNL110      0.0241
    881 CL          6.4122    7.1414   10.9190 Cl    111  UNL111     -0.1257
    882 C           6.6290    8.9048   10.9190 C.3   111  UNL111      0.0198
    883 C           8.1012    9.2586   10.9190 C.3   111  UNL111     -0.0517
    884 H           6.1333    9.3058   10.0304 H     111  UNL111      0.0427
    885 H           6.1333    9.3058   11.8075 H     111  UNL111      0.0427
    886 H           8.2278   10.3459   10.9190 H     111  UNL111      0.0241
    887 H           8.6046    8.8610   11.8064 H     111  UNL111      0.0241
    888 H           8.6046    8.8610   10.0316 H     111  UNL111      0.0241
    889 CL          9.2610   13.0978   13.1369 Cl    112  UNL112     -0.1257
    890 C           7.8659   12.2297   13.8128 C.3   112  UNL112      0.0198
    891 C           6.7144   13.1826   14.0549 C.3   112  UNL112     -0.0517
    892 H           7.5799   11.4470   13.1045 H     112  UNL112      0.0427
    893 H           8.1824   11.7578   14.7472 H     112  UNL112      0.0427
    894 H           5.8584   12.6417   14.4712 H     112  UNL112      0.0241
    895 H           6.9929   13.9691   14.7640 H     112  UNL112      0.0241
    896 H           6.3911   13.6587   13.1234 H     112  UNL112      0.0241
    897 CL          7.9109    9.7186   18.1389 Cl    113  UNL113     -0.1257
    898 C           6.8598   10.5213   16.9525 C.3   113  UNL113      0.0198
    899 C           7.5008   11.7996   16.4547 C.3   113  UNL113     -0.0517
    900 H           6.6899    9.8249   16.1265 H     113  UNL113      0.0427
    901 H           5.9020   10.7303   17.4370 H     113  UNL113      0.0427
    902 H           6.8485   12.2890   15.7244 H     113  UNL113      0.0241
    903 H           7.6736   12.5026   17.2762 H     113  UNL113      0.0241
    904 H           8.4604   11.5983   15.9673 H     113  UNL113      0.0241
    905 CL          6.1021    9.3350   19.8675 Cl    114  UNL114     -0.1257
    906 C           6.6239   11.0334   19.8675 C.3   114  UNL114      0.0198
    907 C           8.1353   11.1242   19.8675 C.3   114  UNL114     -0.0517
    908 H           6.2059   11.5149   18.9789 H     114  UNL114      0.0427
    909 H           6.2059   11.5149   20.7560 H     114  UNL114      0.0427
    910 H           8.4501   12.1727   19.8675 H     114  UNL114      0.0241
    911 H           8.5614   10.6447   20.7549 H     114  UNL114      0.0241
    912 H           8.5614   10.6447   18.9801 H     114  UNL114      0.0241
    913 CL          9.4079    9.3666   22.5155 Cl    115  UNL115     -0.1257
    914 C           7.8654    9.0723   23.3466 C.3   115  UNL115      0.0198
    915 C           6.7009    9.3954   22.4343 C.3   115  UNL115     -0.0517
    916 H           7.8408    8.0220   23.6506 H     115  UNL115      0.0427
    917 H           7.8408    9.6972   24.2438 H     115  UNL115      0.0427
    918 H           5.7540    9.2120   22.9521 H     115  UNL115      0.0241
    919 H           6.7182   10.4459   22.1261 H     115  UNL115      0.0241
    920 H           6.7182    8.7729   21.5337 H     115  UNL115      0.0241
    921 CL          9.2829   11.7125   24.3019 Cl    116  UNL116     -0.1257
    922 C           7.7404   11.4905   23.4486 C.3   116  UNL116      0.0198
    923 C           6.5759   11.7341   24.3853 C.3   116  UNL116     -0.0517
    924 H           7.7158   12.1902   22.6084 H     116  UNL116      0.0427
    925 H           7.7158   10.4703   23.0557 H     116  UNL116      0.0427
    926 H           5.6290   11.5959   23.8537 H     116  UNL116      0.0241
    927 H           6.5932   11.0367   25.2292 H     116  UNL116      0.0241
    928 H           6.5932   12.7543   24.7825 H     116  UNL116      0.0241
    929 CL          9.4079   10.9941   27.5462 Cl    117  UNL117     -0.1257
    930 C           7.8654   11.0040   26.6645 C.3   117  UNL117      0.0198
    931 C           6.7009   10.9931   27.6323 C.3   117  UNL117     -0.0517
    932 H           7.8408   11.8997   26.0375 H     117  UNL117      0.0427
    933 H           7.8408   10.1227   26.0175 H     117  UNL117      0.0427
    934 H           5.7540   10.9993   27.0830 H     117  UNL117      0.0241
    935 H           6.7182   10.0985   28.2635 H     117  UNL117      0.0241
    936 H           6.7182   11.8732   28.2834 H     117  UNL117      0.0241
    937 CL          9.4079   13.2283   31.7988 Cl    118  UNL118     -0.1257
    938 C           7.8654   12.3466   31.7988 C.3   118  UNL118      0.0198
    939 C           6.7009   13.3144   31.7988 C.3   118  UNL118     -0.0517
    940 H           7.8408   11.7095   30.9102 H     118  UNL118      0.0427
    941 H           7.8408   11.7095   32.6873 H     118  UNL118      0.0427
    942 H           5.7540   12.7651   31.7988 H     118  UNL118      0.0241
    943 H           6.7182   13.9556   32.6862 H     118  UNL118      0.0241
    944 H           6.7182   13.9556   30.9114 H     118  UNL118      0.0241
    945 CL          9.3762   16.3129    2.3294 Cl    119  UNL119     -0.1257
    946 C           7.8575   15.4312    2.0597 C.3   119  UNL119      0.0198
    947 C           6.7110   16.3990    1.8560 C.3   119  UNL119     -0.0517
    948 H           7.9887   14.7941    1.1805 H     119  UNL119      0.0427
    949 H           7.6779   14.7941    2.9302 H     119  UNL119      0.0427
    950 H           5.7787   15.8497    1.6905 H     119  UNL119      0.0241
    951 H           6.5728   17.0402    2.7328 H     119  UNL119      0.0241
    952 H           6.8832   17.0402    0.9853 H     119  UNL119      0.0241
    953 CL          9.3762   14.6879    4.5945 Cl    120  UNL120     -0.1257
    954 C           7.8575   13.8062    4.8643 C.3   120  UNL120      0.0198
    955 C           6.7110   14.7740    5.0679 C.3   120  UNL120     -0.0517
    956 H           7.6779   13.1691    3.9937 H     120  UNL120      0.0427
    957 H           7.9887   13.1691    5.7434 H     120  UNL120      0.0427
    958 H           5.7787   14.2247    5.2335 H     120  UNL120      0.0241
    959 H           6.8832   15.4152    5.9386 H     120  UNL120      0.0241
    960 H           6.5728   15.4152    4.1912 H     120  UNL120      0.0241
    961 CL          9.4079   16.3129    7.9362 Cl    121  UNL121     -0.1257
    962 C           7.8654   15.4312    7.9362 C.3   121  UNL121      0.0198
    963 C           6.7009   16.3990    7.9362 C.3   121  UNL121     -0.0517
    964 H           7.8408   14.7941    7.0476 H     121  UNL121      0.0427
    965 H           7.8408   14.7941    8.8247 H     121  UNL121      0.0427
    966 H           5.7540   15.8497    7.9362 H     121  UNL121      0.0241
    967 H           6.7182   17.0402    8.8236 H     121  UNL121      0.0241
    968 H           6.7182   17.0402    7.0488 H     121  UNL121      0.0241
    969 CL          9.4079   12.0081   11.0635 Cl    122  UNL122     -0.1257
    970 C           7.8654   12.8136   10.7048 C.3   122  UNL122      0.0198
    971 C           6.7009   11.9295   11.0986 C.3   122  UNL122     -0.0517
    972 H           7.8408   13.7571   11.2574 H     122  UNL122      0.0427
    973 H           7.8408   13.0341    9.6340 H     122  UNL122      0.0427
    974 H           5.7540   12.4313   10.8751 H     122  UNL122      0.0241
    975 H           6.7182   10.9827   10.5488 H     122  UNL122      0.0241
    976 H           6.7182   11.7047   12.1701 H     122  UNL122      0.0241
    977 CL          9.4079   16.3074   13.8397 Cl    123  UNL123     -0.1257
    978 C           7.8654   15.4393   13.9939 C.3   123  UNL123      0.0198
    979 C           6.7009   16.3922   13.8247 C.3   123  UNL123     -0.0517
    980 H           7.8408   14.6566   13.2304 H     123  UNL123      0.0427
    981 H           7.8408   14.9674   14.9802 H     123  UNL123      0.0427
    982 H           5.7540   15.8513   13.9208 H     123  UNL123      0.0241
    983 H           6.7182   17.1787   14.5863 H     123  UNL123      0.0241
    984 H           6.7182   16.8683   12.8388 H     123  UNL123      0.0241
    985 CL          6.0026   12.7690   17.5044 Cl    124  UNL124     -0.1257
    986 C           6.9257   13.8436   16.4322 C.3   124  UNL124      0.0198
    987 C           7.6227   14.9225   17.2341 C.3   124  UNL124     -0.0517
    988 H           7.6524   13.2341   15.8876 H     124  UNL124      0.0427
    989 H           6.2286   14.2833   15.7134 H     124  UNL124      0.0427
    990 H           8.1893   15.5809   16.5680 H     124  UNL124      0.0241
    991 H           6.9014   15.5378   17.7819 H     124  UNL124      0.0241
    992 H           8.3232   14.4900   17.9559 H     124  UNL124      0.0241
    993 CL          9.4079   14.6879   19.8675 Cl    125  UNL125     -0.1257
    994 C           7.8654   13.8062   19.8675 C.3   125  UNL125      0.0198
    995 C           6.7009   14.7740   19.8675 C.3   125  UNL125     -0.0517
    996 H           7.8408   13.1691   18.9789 H     125  UNL125      0.0427
    997 H           7.8408   13.1691   20.7560 H     125  UNL125      0.0427
    998 H           5.7540   14.2247   19.8675 H     125  UNL125      0.0241
    999 H           6.7182   15.4152   20.7549 H     125  UNL125      0.0241
   1000 H           6.7182   15.4152   18.9801 H     125  UNL125      0.0241
   1001 CL          5.8430   15.7641   22.8503 Cl    126  UNL126     -0.1257
   1002 C           7.4725   15.0560   22.8503 C.3   126  UNL126      0.0198
   1003 C           7.3941   13.5439   22.8503 C.3   126  UNL126     -0.0517
   1004 H           7.9977   15.4176   21.9617 H     126  UNL126      0.0427
   1005 H           7.9977   15.4176   23.7388 H     126  UNL126      0.0427
   1006 H           8.4008   13.1140   22.8503 H     126  UNL126      0.0241
   1007 H           6.8700   13.1740   23.7377 H     126  UNL126      0.0241
   1008 H           6.8700   13.1740   21.9629 H     126  UNL126      0.0241
   1009 CL          9.4079   16.1879   25.8332 Cl    127  UNL127     -0.1257
   1010 C           7.8654   15.3062   25.8332 C.3   127  UNL127      0.0198
   1011 C           6.7009   16.2740   25.8332 C.3   127  UNL127     -0.0517
   1012 H           7.8408   14.6691   24.9446 H     127  UNL127      0.0427
   1013 H           7.8408   14.6691   26.7217 H     127  UNL127      0.0427
   1014 H           5.7540   15.7247   25.8332 H     127  UNL127      0.0241
   1015 H           6.7182   16.9152   26.7206 H     127  UNL127      0.0241
   1016 H           6.7182   16.9152   24.9458 H     127  UNL127      0.0241
   1017 CL          6.8327   13.2297   27.1340 Cl    128  UNL128     -0.1257
   1018 C           6.7997   13.7274   28.8392 C.3   128  UNL128      0.0198
   1019 C           6.9086   15.2332   28.9548 C.3   128  UNL128     -0.0517
   1020 H           5.8628   13.3711   29.2768 H     128  UNL128      0.0427
   1021 H           7.6333   13.2375   29.3500 H     128  UNL128      0.0427
   1022 H           6.8877   15.5332   30.0074 H     128  UNL128      0.0241
   1023 H           7.8448   15.5977   28.5194 H     128  UNL128      0.0241
   1024 H           6.0765   15.7312   28.4462 H     128  UNL128      0.0241
   1025 CL          9.4079   16.3129   31.7988 Cl    129  UNL129     -0.1257
   1026 C           7.8654   15.4312   31.7988 C.3   129  UNL129      0.0198
   1027 C           6.7009   16.3990   31.7988 C.3   129  UNL129     -0.0517
   1028 H           7.8408   14.7941   30.9102 H     129  UNL129      0.0427
   1029 H           7.8408   14.7941   32.6873 H     129  UNL129      0.0427
   1030 H           5.7540   15.8497   31.7988 H     129  UNL129      0.0241
   1031 H           6.7182   17.0402   32.6862 H     129  UNL129      0.0241
   1032 H           6.7182   17.0402   30.9114 H     129  UNL129      0.0241
   1033 CL          9.3141   19.3758    1.9706 Cl    130  UNL130     -0.1257
   1034 C           7.9496   18.2380    1.9706 C.3   130  UNL130      0.0198
   1035 C           6.6338   18.9872    1.9706 C.3   130  UNL130     -0.0517
   1036 H           8.0368   17.6064    1.0820 H     130  UNL130      0.0427
   1037 H           8.0368   17.6064    2.8591 H     130  UNL130      0.0427
   1038 H           5.7975   18.2808    1.9706 H     130  UNL130      0.0241
   1039 H           6.5387   19.6215    2.8580 H     130  UNL130      0.0241
   1040 H           6.5387   19.6215    1.0832 H     130  UNL130      0.0241
   1041 CL          9.4079   18.6474    4.9534 Cl    131  UNL131     -0.1257
   1042 C           7.8654   17.7657    4.9534 C.3   131  UNL131      0.0198
   1043 C           6.7009   18.7335    4.9534 C.3   131  UNL131     -0.0517
   1044 H           7.8408   17.1286    4.0648 H     131  UNL131      0.0427
   1045 H           7.8408   17.1286    5.8419 H     131  UNL131      0.0427
   1046 H           5.7540   18.1842    4.9534 H     131  UNL131      0.0241
   1047 H           6.7182   19.3747    5.8408 H     131  UNL131      0.0241
   1048 H           6.7182   19.3747    4.0660 H     131  UNL131      0.0241
   1049 CL          9.3141   19.3758    7.9362 Cl    132  UNL132     -0.1257
   1050 C           7.9496   18.2380    7.9362 C.3   132  UNL132      0.0198
   1051 C           6.6338   18.9872    7.9362 C.3   132  UNL132     -0.0517
   1052 H           8.0368   17.6064    7.0476 H     132  UNL132      0.0427
   1053 H           8.0368   17.6064    8.8247 H     132  UNL132      0.0427
   1054 H           5.7975   18.2808    7.9362 H     132  UNL132      0.0241
   1055 H           6.5387   19.6215    8.8236 H     132  UNL132      0.0241
   1056 H           6.5387   19.6215    7.0488 H     132  UNL132      0.0241
   1057 CL          6.2872   13.9642   10.5944 Cl    133  UNL133     -0.1257
   1058 C           6.5040   15.7004   10.9027 C.3   133  UNL133      0.0198
   1059 C           7.9762   16.0487   10.9646 C.3   133  UNL133     -0.0517
   1060 H           6.0083   16.2506   10.0980 H     133  UNL133      0.0427
   1061 H           6.0083   15.9399   11.8477 H     133  UNL133      0.0427
   1062 H           8.1028   17.1193   11.1548 H     133  UNL133      0.0241
   1063 H           8.4796   15.5021   11.7688 H     133  UNL133      0.0241
   1064 H           8.4796   15.8125   10.0213 H     133  UNL133      0.0241
   1065 CL          9.3141   19.3758   13.9019 Cl    134  UNL134     -0.1257
   1066 C           7.9496   18.2380   13.9019 C.3   134  UNL134      0.0198
   1067 C           6.6338   18.9872   13.9019 C.3   134  UNL134     -0.0517
   1068 H           8.0368   17.6064   13.0133 H     134  UNL134      0.0427
   1069 H           8.0368   17.6064   14.7904 H     134  UNL134      0.0427
   1070 H           5.7975   18.2808   13.9019 H     134  UNL134      0.0241
   1071 H           6.5387   19.6215   14.7893 H     134  UNL134      0.0241
   1072 H           6.5387   19.6215   13.0145 H     134  UNL134      0.0241
   1073 CL          9.4079   18.6474   16.8847 Cl    135  UNL135     -0.1257
   1074 C           7.8654   17.7657   16.8847 C.3   135  UNL135      0.0198
   1075 C           6.7009   18.7335   16.8847 C.3   135  UNL135     -0.0517
   1076 H           7.8408   17.1286   15.9961 H     135  UNL135      0.0427
   1077 H           7.8408   17.1286   17.7732 H     135  UNL135      0.0427
   1078 H           5.7540   18.1842   16.8847 H     135  UNL135      0.0241
   1079 H           6.7182   19.3747   17.7721 H     135  UNL135      0.0241
   1080 H           6.7182   19.3747   15.9973 H     135  UNL135      0.0241
   1081 CL          7.4079   19.0224   19.8675 Cl    136  UNL136     -0.1257
   1082 C           5.8654   18.1407   19.8675 C.3   136  UNL136      0.0198
   1083 C           4.7009   19.1085   19.8675 C.3   136  UNL136     -0.0517
   1084 H           5.8408   17.5036   18.9789 H     136  UNL136      0.0427
   1085 H           5.8408   17.5036   20.7560 H     136  UNL136      0.0427
   1086 H           3.7540   18.5592   19.8675 H     136  UNL136      0.0241
   1087 H           4.7182   19.7497   20.7549 H     136  UNL136      0.0241
   1088 H           4.7182   19.7497   18.9801 H     136  UNL136      0.0241
   1089 CL          9.4079   18.6474   22.8503 Cl    137  UNL137     -0.1257
   1090 C           7.8654   17.7657   22.8503 C.3   137  UNL137      0.0198
   1091 C           6.7009   18.7335   22.8503 C.3   137  UNL137     -0.0517
   1092 H           7.8408   17.1286   21.9617 H     137  UNL137      0.0427
   1093 H           7.8408   17.1286   23.7388 H     137  UNL137      0.0427
   1094 H           5.7540   18.1842   22.8503 H     137  UNL137      0.0241
   1095 H           6.7182   19.3747   23.7377 H     137  UNL137      0.0241
   1096 H           6.7182   19.3747   21.9629 H     137  UNL137      0.0241
   1097 CL          9.1600   19.5824   25.8332 Cl    138  UNL138     -0.1257
   1098 C           8.0155   18.2234   25.8332 C.3   138  UNL138      0.0198
   1099 C           6.5889   18.7310   25.8332 C.3   138  UNL138     -0.0517
   1100 H           8.2118   17.6168   24.9446 H     138  UNL138      0.0427
   1101 H           8.2118   17.6168   26.7217 H     138  UNL138      0.0427
   1102 H           5.8891   17.8892   25.8332 H     138  UNL138      0.0241
   1103 H           6.3844   19.3390   26.7206 H     138  UNL138      0.0241
   1104 H           6.3844   19.3390   24.9458 H     138  UNL138      0.0241
   1105 CL          7.6919   19.2460   30.7471 Cl    139  UNL139     -0.1257
   1106 C           7.4392   18.1118   29.4030 C.3   139  UNL139      0.0198
   1107 C           7.2485   18.8638   28.1027 C.3   139  UNL139     -0.0517
   1108 H           8.3118   17.4548   29.3473 H     139  UNL139      0.0427
   1109 H           6.5587   17.5057   29.6339 H     139  UNL139      0.0427
   1110 H           7.0934   18.1596   27.2791 H     139  UNL139      0.0241
   1111 H           6.3759   19.5235   28.1505 H     139  UNL139      0.0241
   1112 H           8.1267   19.4726   27.8643 H     139  UNL139      0.0241
   1113 CL          9.4079   19.0224   32.7988 Cl    140  UNL140     -0.1257
   1114 C           7.8654   18.1407   32.7988 C.3   140  UNL140      0.0198
   1115 C           6.7009   19.1085   32.7988 C.3   140  UNL140     -0.0517
   1116 H           7.8408   17.5036   31.9102 H     140  UNL140      0.0427
   1117 H           7.8408   17.5036   33.6873 H     140  UNL140      0.0427
   1118 H           5.7540   18.5592   32.7988 H     140  UNL140      0.0241
   1119 H           6.7182   19.7497   33.6862 H     140  UNL140      0.0241
   1120 H           6.7182   19.7497   31.9114 H     140  UNL140      0.0241
   1121 CL         14.1921   -0.1720    1.9706 Cl    141  UNL141     -0.1257
   1122 C          12.8275   -1.3099    1.9706 C.3   141  UNL141      0.0198
   1123 C          11.5117   -0.5607    1.9706 C.3   141  UNL141     -0.0517
   1124 H          12.9147   -1.9415    1.0820 H     141  UNL141      0.0427
   1125 H          12.9147   -1.9415    2.8591 H     141  UNL141      0.0427
   1126 H          10.6755   -1.2671    1.9706 H     141  UNL141      0.0241
   1127 H          11.4166    0.0737    2.8580 H     141  UNL141      0.0241
   1128 H          11.4166    0.0737    1.0832 H     141  UNL141      0.0241
   1129 CL         11.2901   -0.8623    4.9534 Cl    142  UNL142     -0.1257
   1130 C          11.5069    0.9011    4.9534 C.3   142  UNL142      0.0198
   1131 C          12.9792    1.2549    4.9534 C.3   142  UNL142     -0.0517
   1132 H          11.0112    1.3021    4.0648 H     142  UNL142      0.0427
   1133 H          11.0112    1.3021    5.8419 H     142  UNL142      0.0427
   1134 H          13.1058    2.3422    4.9534 H     142  UNL142      0.0241
   1135 H          13.4825    0.8573    5.8408 H     142  UNL142      0.0241
   1136 H          13.4825    0.8573    4.0660 H     142  UNL142      0.0241
   1137 CL         14.1921    0.3280    7.9362 Cl    143  UNL143     -0.1257
   1138 C          12.8275   -0.8099    7.9362 C.3   143  UNL143      0.0198
   1139 C          11.5117   -0.0607    7.9362 C.3   143  UNL143     -0.0517
   1140 H          12.9147   -1.4415    7.0476 H     143  UNL143      0.0427
   1141 H          12.9147   -1.4415    8.8247 H     143  UNL143      0.0427
   1142 H          10.6755   -0.7671    7.9362 H     143  UNL143      0.0241
   1143 H          11.4166    0.5737    8.8236 H     143  UNL143      0.0241
   1144 H          11.4166    0.5737    7.0488 H     143  UNL143      0.0241
   1145 CL         13.4764   -0.6706   10.7749 Cl    144  UNL144     -0.1257
   1146 C          12.9572    1.0282   10.8080 C.3   144  UNL144      0.0198
   1147 C          11.4627    1.1220   11.0329 C.3   144  UNL144     -0.0517
   1148 H          13.5030    1.5324   11.6105 H     144  UNL144      0.0427
   1149 H          13.2358    1.4849    9.8543 H     144  UNL144      0.0427
   1150 H          11.1494    2.1707   11.0522 H     144  UNL144      0.0241
   1151 H          10.9090    0.6199   10.2327 H     144  UNL144      0.0241
   1152 H          11.1759    0.6673   11.9867 H     144  UNL144      0.0241
   1153 CL         14.2858    1.3496   13.9019 Cl    145  UNL145     -0.1257
   1154 C          12.7433    0.4679   13.9019 C.3   145  UNL145      0.0198
   1155 C          11.5788    1.4357   13.9019 C.3   145  UNL145     -0.0517
   1156 H          12.7187   -0.1692   13.0133 H     145  UNL145      0.0427
   1157 H          12.7187   -0.1692   14.7904 H     145  UNL145      0.0427
   1158 H          10.6319    0.8864   13.9019 H     145  UNL145      0.0241
   1159 H          11.5961    2.0769   14.7893 H     145  UNL145      0.0241
   1160 H          11.5961    2.0769   13.0145 H     145  UNL145      0.0241
   1161 CL         13.7485   -0.4277   17.0288 Cl    146  UNL146     -0.1257
   1162 C          12.9401    1.1542   16.9957 C.3   146  UNL146      0.0198
   1163 C          11.4523    0.9852   16.7708 C.3   146  UNL146     -0.0517
   1164 H          13.1345    1.6526   17.9495 H     146  UNL146      0.0427
   1165 H          13.3893    1.7460   16.1933 H     146  UNL146      0.0427
   1166 H          10.9604    1.9630   16.7515 H     146  UNL146      0.0241
   1167 H          11.2494    0.4873   15.8170 H     146  UNL146      0.0241
   1168 H          10.9949    0.3940   17.5710 H     146  UNL146      0.0241
   1169 CL         14.2858   -0.2754   19.8675 Cl    147  UNL147     -0.1257
   1170 C          12.7433   -1.1571   19.8675 C.3   147  UNL147      0.0198
   1171 C          11.5788   -0.1893   19.8675 C.3   147  UNL147     -0.0517
   1172 H          12.7187   -1.7942   18.9789 H     147  UNL147      0.0427
   1173 H          12.7187   -1.7942   20.7560 H     147  UNL147      0.0427
   1174 H          10.6319   -0.7386   19.8675 H     147  UNL147      0.0241
   1175 H          11.5961    0.4519   20.7549 H     147  UNL147      0.0241
   1176 H          11.5961    0.4519   18.9801 H     147  UNL147      0.0241
   1177 CL         10.9202   -0.9719   22.8503 Cl    148  UNL148     -0.1257
   1178 C           9.7978    0.4053   22.8503 C.3   148  UNL148      0.0198
   1179 C          10.5618    1.7127   22.8503 C.3   148  UNL148     -0.0517
   1180 H           9.1653    0.3253   21.9617 H     148  UNL148      0.0427
   1181 H           9.1653    0.3253   23.7388 H     148  UNL148      0.0427
   1182 H           9.8648    2.5568   22.8503 H     148  UNL148      0.0241
   1183 H          11.1971    1.8006   23.7377 H     148  UNL148      0.0241
   1184 H          11.1971    1.8006   21.9629 H     148  UNL148      0.0241
   1185 CL         14.2858   -0.2754   25.8332 Cl    149  UNL149     -0.1257
   1186 C          12.7433   -1.1571   25.8332 C.3   149  UNL149      0.0198
   1187 C          11.5788   -0.1893   25.8332 C.3   149  UNL149     -0.0517
   1188 H          12.7187   -1.7942   24.9446 H     149  UNL149      0.0427
   1189 H          12.7187   -1.7942   26.7217 H     149  UNL149      0.0427
   1190 H          10.6319   -0.7386   25.8332 H     149  UNL149      0.0241
   1191 H          11.5961    0.4519   26.7206 H     149  UNL149      0.0241
   1192 H          11.5961    0.4519   24.9458 H     149  UNL149      0.0241
   1193 CL         10.1993    1.4333   28.7380 Cl    150  UNL150     -0.1257
   1194 C          11.9605    1.6638   28.6971 C.3   150  UNL150      0.0198
   1195 C          12.6735    0.3485   28.9307 C.3   150  UNL150     -0.0517
   1196 H          12.2239    2.0801   27.7206 H     150  UNL150      0.0427
   1197 H          12.2239    2.3909   29.4704 H     150  UNL150      0.0427
   1198 H          13.7577    0.4973   28.9043 H     150  UNL150      0.0241
   1199 H          12.4153   -0.0744   29.9071 H     150  UNL150      0.0241
   1200 H          12.4153   -0.3848   28.1597 H     150  UNL150      0.0241
   1201 CL         14.2858    1.3496   32.7988 Cl    151  UNL151     -0.1257
   1202 C          12.7433    0.4679   32.7988 C.3   151  UNL151      0.0198
   1203 C          11.5788    1.4357   32.7988 C.3   151  UNL151     -0.0517
   1204 H          12.7187   -0.1692   31.9102 H     151  UNL151      0.0427
   1205 H          12.7187   -0.1692   33.6873 H     151  UNL151      0.0427
   1206 H          10.6319    0.8864   32.7988 H     151  UNL151      0.0241
   1207 H          11.5961    2.0769   33.6862 H     151  UNL151      0.0241
   1208 H          11.5961    2.0769   31.9114 H     151  UNL151      0.0241
   1209 CL         14.2858    4.6841   -1.0123 Cl    152  UNL152     -0.1257
   1210 C          12.7433    3.8024   -1.0123 C.3   152  UNL152      0.0198
   1211 C          11.5788    4.7702   -1.0123 C.3   152  UNL152     -0.0517
   1212 H          12.7187    3.1653   -1.9009 H     152  UNL152      0.0427
   1213 H          12.7187    3.1653   -0.1238 H     152  UNL152      0.0427
   1214 H          10.6319    4.2209   -1.0123 H     152  UNL152      0.0241
   1215 H          11.5961    5.4114   -0.1249 H     152  UNL152      0.0241
   1216 H          11.5961    5.4114   -1.8997 H     152  UNL152      0.0241
   1217 CL         14.1921    2.9125    1.9706 Cl    153  UNL153     -0.1257
   1218 C          12.8275    1.7747    1.9706 C.3   153  UNL153      0.0198
   1219 C          11.5117    2.5239    1.9706 C.3   153  UNL153     -0.0517
   1220 H          12.9147    1.1431    1.0820 H     153  UNL153      0.0427
   1221 H          12.9147    1.1431    2.8591 H     153  UNL153      0.0427
   1222 H          10.6755    1.8175    1.9706 H     153  UNL153      0.0241
   1223 H          11.4166    3.1583    2.8580 H     153  UNL153      0.0241
   1224 H          11.4166    3.1583    1.0832 H     153  UNL153      0.0241
   1225 CL         14.2542    4.6841    7.5773 Cl    154  UNL154     -0.1257
   1226 C          12.7354    3.8024    7.8471 C.3   154  UNL154      0.0198
   1227 C          11.5889    4.7702    8.0507 C.3   154  UNL154     -0.0517
   1228 H          12.5558    3.1653    6.9765 H     154  UNL154      0.0427
   1229 H          12.8666    3.1653    8.7262 H     154  UNL154      0.0427
   1230 H          10.6566    4.2209    8.2163 H     154  UNL154      0.0241
   1231 H          11.7611    5.4114    8.9214 H     154  UNL154      0.0241
   1232 H          11.4507    5.4114    7.1740 H     154  UNL154      0.0241
   1233 CL         14.2858    4.6841   13.9019 Cl    155  UNL155     -0.1257
   1234 C          12.7433    3.8024   13.9019 C.3   155  UNL155      0.0198
   1235 C          11.5788    4.7702   13.9019 C.3   155  UNL155     -0.0517
   1236 H          12.7187    3.1653   13.0133 H     155  UNL155      0.0427
   1237 H          12.7187    3.1653   14.7904 H     155  UNL155      0.0427
   1238 H          10.6319    4.2209   13.9019 H     155  UNL155      0.0241
   1239 H          11.5961    5.4114   14.7893 H     155  UNL155      0.0241
   1240 H          11.5961    5.4114   13.0145 H     155  UNL155      0.0241
   1241 CL         14.1921    3.0375   25.8332 Cl    156  UNL156     -0.1257
   1242 C          12.8275    1.8997   25.8332 C.3   156  UNL156      0.0198
   1243 C          11.5117    2.6489   25.8332 C.3   156  UNL156     -0.0517
   1244 H          12.9147    1.2681   24.9446 H     156  UNL156      0.0427
   1245 H          12.9147    1.2681   26.7217 H     156  UNL156      0.0427
   1246 H          10.6755    1.9425   25.8332 H     156  UNL156      0.0241
   1247 H          11.4166    3.2833   26.7206 H     156  UNL156      0.0241
   1248 H          11.4166    3.2833   24.9458 H     156  UNL156      0.0241
   1249 CL         14.2858    4.6841   32.7988 Cl    157  UNL157     -0.1257
   1250 C          12.7433    3.8024   32.7988 C.3   157  UNL157      0.0198
   1251 C          11.5788    4.7702   32.7988 C.3   157  UNL157     -0.0517
   1252 H          12.7187    3.1653   31.9102 H     157  UNL157      0.0427
   1253 H          12.7187    3.1653   33.6873 H     157  UNL157      0.0427
   1254 H          10.6319    4.2209   32.7988 H     157  UNL157      0.0241
   1255 H          11.5961    5.4114   33.6862 H     157  UNL157      0.0241
   1256 H          11.5961    5.4114   31.9114 H     157  UNL157      0.0241
   1257 CL         14.2858    8.0187   -1.0123 Cl    158  UNL158     -0.1257
   1258 C          12.7433    7.1370   -1.0123 C.3   158  UNL158      0.0198
   1259 C          11.5788    8.1048   -1.0123 C.3   158  UNL158     -0.0517
   1260 H          12.7187    6.4999   -1.9009 H     158  UNL158      0.0427
   1261 H          12.7187    6.4999   -0.1238 H     158  UNL158      0.0427
   1262 H          10.6319    7.5555   -1.0123 H     158  UNL158      0.0241
   1263 H          11.5961    8.7460   -0.1249 H     158  UNL158      0.0241
   1264 H          11.5961    8.7460   -1.8997 H     158  UNL158      0.0241
   1265 CL         14.2858    5.7687    1.9706 Cl    159  UNL159     -0.1257
   1266 C          12.7433    4.8870    1.9706 C.3   159  UNL159      0.0198
   1267 C          11.5788    5.8548    1.9706 C.3   159  UNL159     -0.0517
   1268 H          12.7187    4.2499    1.0820 H     159  UNL159      0.0427
   1269 H          12.7187    4.2499    2.8591 H     159  UNL159      0.0427
   1270 H          10.6319    5.3055    1.9706 H     159  UNL159      0.0241
   1271 H          11.5961    6.4960    2.8580 H     159  UNL159      0.0241
   1272 H          11.5961    6.4960    1.0832 H     159  UNL159      0.0241
   1273 CL         10.7085    6.2453    4.9534 Cl    160  UNL160     -0.1257
   1274 C          11.5192    7.8262    4.9534 C.3   160  UNL160      0.0198
   1275 C          13.0233    7.6514    4.9534 C.3   160  UNL160     -0.0517
   1276 H          11.1920    8.3734    4.0648 H     160  UNL160      0.0427
   1277 H          11.1920    8.3734    5.8419 H     160  UNL160      0.0427
   1278 H          13.5166    8.6286    4.9534 H     160  UNL160      0.0241
   1279 H          13.3589    7.1048    5.8408 H     160  UNL160      0.0241
   1280 H          13.3589    7.1048    4.0660 H     160  UNL160      0.0241
   1281 CL         14.2858    8.0187    7.9362 Cl    161  UNL161     -0.1257
   1282 C          12.7433    7.1370    7.9362 C.3   161  UNL161      0.0198
   1283 C          11.5788    8.1048    7.9362 C.3   161  UNL161     -0.0517
   1284 H          12.7187    6.4999    7.0476 H     161  UNL161      0.0427
   1285 H          12.7187    6.4999    8.8247 H     161  UNL161      0.0427
   1286 H          10.6319    7.5555    7.9362 H     161  UNL161      0.0241
   1287 H          11.5961    8.7460    8.8236 H     161  UNL161      0.0241
   1288 H          11.5961    8.7460    7.0488 H     161  UNL161      0.0241
   1289 CL         14.2858    9.0187   10.9190 Cl    162  UNL162     -0.1257
   1290 C          12.7433    8.1370   10.9190 C.3   162  UNL162      0.0198
   1291 C          11.5788    9.1048   10.9190 C.3   162  UNL162     -0.0517
   1292 H          12.7187    7.4999   10.0304 H     162  UNL162      0.0427
   1293 H          12.7187    7.4999   11.8075 H     162  UNL162      0.0427
   1294 H          10.6319    8.5555   10.9190 H     162  UNL162      0.0241
   1295 H          11.5961    9.7460   11.8064 H     162  UNL162      0.0241
   1296 H          11.5961    9.7460   10.0316 H     162  UNL162      0.0241
   1297 CL         14.1929    7.7217   13.1980 Cl    163  UNL163     -0.1257
   1298 C          12.8263    7.5773   14.3241 C.3   163  UNL163      0.0198
   1299 C          11.5128    7.7358   13.5877 C.3   163  UNL163     -0.0517
   1300 H          12.8865    6.5963   14.8039 H     163  UNL163      0.0427
   1301 H          12.9374    8.3494   15.0905 H     163  UNL163      0.0427
   1302 H          10.6752    7.6458   14.2868 H     163  UNL163      0.0241
   1303 H          11.4446    8.7162   13.1050 H     163  UNL163      0.0241
   1304 H          11.3937    6.9654   12.8188 H     163  UNL163      0.0241
   1305 CL         12.7858    8.0187   16.8847 Cl    164  UNL164     -0.1257
   1306 C          11.2433    7.1370   16.8847 C.3   164  UNL164      0.0198
   1307 C          10.0788    8.1048   16.8847 C.3   164  UNL164     -0.0517
   1308 H          11.2187    6.4999   15.9961 H     164  UNL164      0.0427
   1309 H          11.2187    6.4999   17.7732 H     164  UNL164      0.0427
   1310 H           9.1319    7.5555   16.8847 H     164  UNL164      0.0241
   1311 H          10.0961    8.7460   17.7721 H     164  UNL164      0.0241
   1312 H          10.0961    8.7460   15.9973 H     164  UNL164      0.0241
   1313 CL         11.4151    5.8068   19.8675 Cl    165  UNL165     -0.1257
   1314 C          11.6319    7.5703   19.8675 C.3   165  UNL165      0.0198
   1315 C          13.1042    7.9240   19.8675 C.3   165  UNL165     -0.0517
   1316 H          11.1362    7.9713   18.9789 H     165  UNL165      0.0427
   1317 H          11.1362    7.9713   20.7560 H     165  UNL165      0.0427
   1318 H          13.2308    9.0114   19.8675 H     165  UNL165      0.0241
   1319 H          13.6075    7.5264   20.7549 H     165  UNL165      0.0241
   1320 H          13.6075    7.5264   18.9801 H     165  UNL165      0.0241
   1321 CL         12.6608    7.5043   22.5328 Cl    166  UNL166     -0.1257
   1322 C          11.1183    7.8994   23.3210 C.3   166  UNL166      0.0198
   1323 C           9.9538    7.4657   22.4558 C.3   166  UNL166     -0.0517
   1324 H          11.0937    7.3905   24.2887 H     166  UNL166      0.0427
   1325 H          11.0937    8.9792   23.4924 H     166  UNL166      0.0427
   1326 H           9.0069    7.7119   22.9469 H     166  UNL166      0.0241
   1327 H           9.9711    7.9718   21.4849 H     166  UNL166      0.0241
   1328 H           9.9711    6.3851   22.2802 H     166  UNL166      0.0241
   1329 CL         14.2858    8.0187   25.8332 Cl    167  UNL167     -0.1257
   1330 C          12.7433    7.1370   25.8332 C.3   167  UNL167      0.0198
   1331 C          11.5788    8.1048   25.8332 C.3   167  UNL167     -0.0517
   1332 H          12.7187    6.4999   24.9446 H     167  UNL167      0.0427
   1333 H          12.7187    6.4999   26.7217 H     167  UNL167      0.0427
   1334 H          10.6319    7.5555   25.8332 H     167  UNL167      0.0241
   1335 H          11.5961    8.7460   26.7206 H     167  UNL167      0.0241
   1336 H          11.5961    8.7460   24.9458 H     167  UNL167      0.0241
   1337 CL         11.2901    7.3594   30.6476 Cl    168  UNL168     -0.1257
   1338 C          11.5069    7.6482   28.9079 C.3   168  UNL168      0.0198
   1339 C          12.9792    7.7062   28.5590 C.3   168  UNL168     -0.0517
   1340 H          11.0112    6.8373   28.3668 H     168  UNL168      0.0427
   1341 H          11.0112    8.5904   28.6579 H     168  UNL168      0.0427
   1342 H          13.1058    7.8843   27.4863 H     168  UNL168      0.0241
   1343 H          13.4825    8.5165   29.0965 H     168  UNL168      0.0241
   1344 H          13.4825    6.7656   28.8058 H     168  UNL168      0.0241
   1345 CL         14.2858    8.0187   32.7988 Cl    169  UNL169     -0.1257
   1346 C          12.7433    7.1370   32.7988 C.3   169  UNL169      0.0198
   1347 C          11.5788    8.1048   32.7988 C.3   169  UNL169     -0.0517
   1348 H          12.7187    6.4999   31.9102 H     169  UNL169      0.0427
   1349 H          12.7187    6.4999   33.6873 H     169  UNL169      0.0427
   1350 H          10.6319    7.5555   32.7988 H     169  UNL169      0.0241
   1351 H          11.5961    8.7460   33.6862 H     169  UNL169      0.0241
   1352 H          11.5961    8.7460   31.9114 H     169  UNL169      0.0241
   1353 CL         14.0436    9.8881    1.7944 Cl    170  UNL170     -0.1257
   1354 C          12.8867    8.5452    1.9158 C.3   170  UNL170      0.0198
   1355 C          11.4724    9.0724    2.0367 C.3   170  UNL170     -0.0517
   1356 H          12.9947    7.9248    1.0216 H     170  UNL170      0.0427
   1357 H          13.1544    7.9472    2.7914 H     170  UNL170      0.0427
   1358 H          10.7649    8.2405    2.1111 H     170  UNL170      0.0241
   1359 H          11.3561    9.6943    2.9304 H     170  UNL170      0.0241
   1360 H          11.1966    9.6719    1.1630 H     170  UNL170      0.0241
   1361 CL         14.2858   11.3533    7.9362 Cl    171  UNL171     -0.1257
   1362 C          12.7433   10.4716    7.9362 C.3   171  UNL171      0.0198
   1363 C          11.5788   11.4394    7.9362 C.3   171  UNL171     -0.0517
   1364 H          12.7187    9.8345    7.0476 H     171  UNL171      0.0427
   1365 H          12.7187    9.8345    8.8247 H     171  UNL171      0.0427
   1366 H          10.6319   10.8901    7.9362 H     171  UNL171      0.0241
   1367 H          11.5961   12.0806    8.8236 H     171  UNL171      0.0241
   1368 H          11.5961   12.0806    7.0488 H     171  UNL171      0.0241
   1369 CL         14.2542   11.3533   13.5430 Cl    172  UNL172     -0.1257
   1370 C          12.7354   10.4716   13.8127 C.3   172  UNL172      0.0198
   1371 C          11.5889   11.4394   14.0164 C.3   172  UNL172     -0.0517
   1372 H          12.5558    9.8345   12.9421 H     172  UNL172      0.0427
   1373 H          12.8666    9.8345   14.6919 H     172  UNL172      0.0427
   1374 H          10.6566   10.8901   14.1820 H     172  UNL172      0.0241
   1375 H          11.7611   12.0806   14.8871 H     172  UNL172      0.0241
   1376 H          11.4507   12.0806   13.1396 H     172  UNL172      0.0241
   1377 CL         12.7858   11.3533   16.8847 Cl    173  UNL173     -0.1257
   1378 C          11.2433   10.4716   16.8847 C.3   173  UNL173      0.0198
   1379 C          10.0788   11.4394   16.8847 C.3   173  UNL173     -0.0517
   1380 H          11.2187    9.8345   15.9961 H     173  UNL173      0.0427
   1381 H          11.2187    9.8345   17.7732 H     173  UNL173      0.0427
   1382 H           9.1319   10.8901   16.8847 H     173  UNL173      0.0241
   1383 H          10.0961   12.0806   17.7721 H     173  UNL173      0.0241
   1384 H          10.0961   12.0806   15.9973 H     173  UNL173      0.0241
   1385 CL         14.2858   11.0562   20.2179 Cl    174  UNL174     -0.1257
   1386 C          12.7433   10.9118   19.3481 C.3   174  UNL174      0.0198
   1387 C          11.5788   11.0703   20.3029 C.3   174  UNL174     -0.0517
   1388 H          12.7187   11.6840   18.5741 H     174  UNL174      0.0427
   1389 H          12.7187    9.9309   18.8652 H     174  UNL174      0.0427
   1390 H          10.6319   10.9804   19.7610 H     174  UNL174      0.0241
   1391 H          11.5961   10.3000   21.0808 H     174  UNL174      0.0241
   1392 H          11.5961   12.0508   20.7900 H     174  UNL174      0.0241
   1393 CL         14.2858   11.3478   25.7710 Cl    175  UNL175     -0.1257
   1394 C          12.7433   10.4797   25.9252 C.3   175  UNL175      0.0198
   1395 C          11.5788   11.4326   25.7560 C.3   175  UNL175     -0.0517
   1396 H          12.7187    9.6970   25.1617 H     175  UNL175      0.0427
   1397 H          12.7187   10.0078   26.9115 H     175  UNL175      0.0427
   1398 H          10.6319   10.8917   25.8520 H     175  UNL175      0.0241
   1399 H          11.5961   12.2191   26.5176 H     175  UNL175      0.0241
   1400 H          11.5961   11.9087   24.7701 H     175  UNL175      0.0241
   1401 CL         14.2858   11.3533   32.7988 Cl    176  UNL176     -0.1257
   1402 C          12.7433   10.4716   32.7988 C.3   176  UNL176      0.0198
   1403 C          11.5788   11.4394   32.7988 C.3   176  UNL176     -0.0517
   1404 H          12.7187    9.8345   31.9102 H     176  UNL176      0.0427
   1405 H          12.7187    9.8345   33.6873 H     176  UNL176      0.0427
   1406 H          10.6319   10.8901   32.7988 H     176  UNL176      0.0241
   1407 H          11.5961   12.0806   33.6862 H     176  UNL176      0.0241
   1408 H          11.5961   12.0806   31.9114 H     176  UNL176      0.0241
   1409 CL         11.8660   14.3508    1.6109 Cl    177  UNL177     -0.1257
   1410 C          12.7560   12.8436    1.9160 C.3   177  UNL177      0.0198
   1411 C          11.7973   11.6798    2.0540 C.3   177  UNL177     -0.0517
   1412 H          13.4440   12.6830    1.0812 H     177  UNL177      0.0427
   1413 H          13.3403   12.9760    2.8309 H     177  UNL177      0.0427
   1414 H          12.3517   10.7547    2.2418 H     177  UNL177      0.0241
   1415 H          11.1053   11.8329    2.8886 H     177  UNL177      0.0241
   1416 H          11.2089   11.5403    1.1412 H     177  UNL177      0.0241
   1417 CL         10.9850   12.6978    5.2781 Cl    178  UNL178     -0.1257
   1418 C          11.5020   14.3694    4.9697 C.3   178  UNL178      0.0198
   1419 C          13.0125   14.4548    4.9078 C.3   178  UNL178     -0.0517
   1420 H          11.0559   14.6918    4.0247 H     178  UNL178      0.0427
   1421 H          11.1102   14.9978    5.7744 H     178  UNL178      0.0427
   1422 H          13.3244   15.4868    4.7177 H     178  UNL178      0.0241
   1423 H          13.4668   14.1342    5.8511 H     178  UNL178      0.0241
   1424 H          13.4125   13.8286    4.1036 H     178  UNL178      0.0241
   1425 CL         14.2858   14.6824    7.9983 Cl    179  UNL179     -0.1257
   1426 C          12.7433   13.8143    7.8441 C.3   179  UNL179      0.0198
   1427 C          11.5788   14.7672    8.0134 C.3   179  UNL179     -0.0517
   1428 H          12.7187   13.3424    6.8578 H     179  UNL179      0.0427
   1429 H          12.7187   13.0316    8.6075 H     179  UNL179      0.0427
   1430 H          10.6319   14.2263    7.9173 H     179  UNL179      0.0241
   1431 H          11.5961   15.2433    8.9993 H     179  UNL179      0.0241
   1432 H          11.5961   15.5537    7.2518 H     179  UNL179      0.0241
   1433 CL         14.2542   14.6879   14.2607 Cl    180  UNL180     -0.1257
   1434 C          12.7354   13.8062   13.9910 C.3   180  UNL180      0.0198
   1435 C          11.5889   14.7740   13.7873 C.3   180  UNL180     -0.0517
   1436 H          12.8666   13.1691   13.1118 H     180  UNL180      0.0427
   1437 H          12.5558   13.1691   14.8615 H     180  UNL180      0.0427
   1438 H          10.6566   14.2247   13.6218 H     180  UNL180      0.0241
   1439 H          11.4507   15.4152   14.6641 H     180  UNL180      0.0241
   1440 H          11.7611   15.4152   12.9166 H     180  UNL180      0.0241
   1441 CL         12.7858   14.6879   16.8847 Cl    181  UNL181     -0.1257
   1442 C          11.2433   13.8062   16.8847 C.3   181  UNL181      0.0198
   1443 C          10.0788   14.7740   16.8847 C.3   181  UNL181     -0.0517
   1444 H          11.2187   13.1691   15.9961 H     181  UNL181      0.0427
   1445 H          11.2187   13.1691   17.7732 H     181  UNL181      0.0427
   1446 H           9.1319   14.2247   16.8847 H     181  UNL181      0.0241
   1447 H          10.0961   15.4152   17.7721 H     181  UNL181      0.0241
   1448 H          10.0961   15.4152   15.9973 H     181  UNL181      0.0241
   1449 CL         10.6374   16.3666   23.2008 Cl    182  UNL182     -0.1257
   1450 C          10.5272   14.8212   22.3310 C.3   182  UNL182      0.0198
   1451 C          10.1801   13.6984   23.2857 C.3   182  UNL182     -0.0517
   1452 H           9.7614   14.9235   21.5569 H     182  UNL182      0.0427
   1453 H          11.4908   14.6363   21.8480 H     182  UNL182      0.0427
   1454 H          10.1138   12.7496   22.7438 H     182  UNL182      0.0241
   1455 H          10.9429   13.5893   24.0636 H     182  UNL182      0.0241
   1456 H           9.2157   13.8761   23.7729 H     182  UNL182      0.0241
   1457 CL         14.2858   14.6879   25.8332 Cl    183  UNL183     -0.1257
   1458 C          12.7433   13.8062   25.8332 C.3   183  UNL183      0.0198
   1459 C          11.5788   14.7740   25.8332 C.3   183  UNL183     -0.0517
   1460 H          12.7187   13.1691   24.9446 H     183  UNL183      0.0427
   1461 H          12.7187   13.1691   26.7217 H     183  UNL183      0.0427
   1462 H          10.6319   14.2247   25.8332 H     183  UNL183      0.0241
   1463 H          11.5961   15.4152   26.7206 H     183  UNL183      0.0241
   1464 H          11.5961   15.4152   24.9458 H     183  UNL183      0.0241
   1465 CL         12.4108   14.6879   28.8160 Cl    184  UNL184     -0.1257
   1466 C          10.8683   13.8062   28.8160 C.3   184  UNL184      0.0198
   1467 C           9.7038   14.7740   28.8160 C.3   184  UNL184     -0.0517
   1468 H          10.8437   13.1691   27.9274 H     184  UNL184      0.0427
   1469 H          10.8437   13.1691   29.7045 H     184  UNL184      0.0427
   1470 H           8.7569   14.2247   28.8160 H     184  UNL184      0.0241
   1471 H           9.7211   15.4152   29.7034 H     184  UNL184      0.0241
   1472 H           9.7211   15.4152   27.9286 H     184  UNL184      0.0241
   1473 CL         14.1609   15.0357   33.1577 Cl    185  UNL185     -0.1257
   1474 C          12.8198   13.9020   32.8879 C.3   185  UNL185      0.0198
   1475 C          11.5216   14.6544   32.6843 C.3   185  UNL185     -0.0517
   1476 H          13.0603   13.2977   32.0087 H     185  UNL185      0.0427
   1477 H          12.7544   13.2433   33.7584 H     185  UNL185      0.0427
   1478 H          10.6998   13.9505   32.5187 H     185  UNL185      0.0241
   1479 H          11.2735   15.2616   33.5610 H     185  UNL185      0.0241
   1480 H          11.5791   15.3158   31.8136 H     185  UNL185      0.0241
   1481 CL         12.2858   19.0224   10.9190 Cl    186  UNL186     -0.1257
   1482 C          10.7433   18.1407   10.9190 C.3   186  UNL186      0.0198
   1483 C           9.5788   19.1085   10.9190 C.3   186  UNL186     -0.0517
   1484 H          10.7187   17.5036   10.0304 H     186  UNL186      0.0427
   1485 H          10.7187   17.5036   11.8075 H     186  UNL186      0.0427
   1486 H           8.6319   18.5592   10.9190 H     186  UNL186      0.0241
   1487 H           9.5961   19.7497   11.8064 H     186  UNL186      0.0241
   1488 H           9.5961   19.7497   10.0316 H     186  UNL186      0.0241
   1489 CL         12.2858   18.0224   19.8675 Cl    187  UNL187     -0.1257
   1490 C          10.7433   17.1407   19.8675 C.3   187  UNL187      0.0198
   1491 C           9.5788   18.1085   19.8675 C.3   187  UNL187     -0.0517
   1492 H          10.7187   16.5036   18.9789 H     187  UNL187      0.0427
   1493 H          10.7187   16.5036   20.7560 H     187  UNL187      0.0427
   1494 H           8.6319   17.5592   19.8675 H     187  UNL187      0.0241
   1495 H           9.5961   18.7497   20.7549 H     187  UNL187      0.0241
   1496 H           9.5961   18.7497   18.9801 H     187  UNL187      0.0241
   1497 CL         14.2858   17.7858   31.4640 Cl    188  UNL188     -0.1257
   1498 C          12.7433   17.4915   32.2951 C.3   188  UNL188      0.0198
   1499 C          11.5788   17.8145   31.3828 C.3   188  UNL188     -0.0517
   1500 H          12.7187   16.4412   32.5990 H     188  UNL188      0.0427
   1501 H          12.7187   18.1164   33.1922 H     188  UNL188      0.0427
   1502 H          10.6319   17.6312   31.9006 H     188  UNL188      0.0241
   1503 H          11.5961   18.8651   31.0746 H     188  UNL188      0.0241
   1504 H          11.5961   17.1921   30.4822 H     188  UNL188      0.0241
@<TRIPOS>BOND
     1     1     2    1
     2     2     3    1
     3     2     4    1
     4     2     5    1
     5     3     6    1
     6     3     7    1
     7     3     8    1
     8     9    10    1
     9    10    11    1
    10    10    12    1
    11    10    13    1
    12    11    14    1
    13    11    15    1
    14    11    16    1
    15    17    18    1
    16    18    19    1
    17    18    20    1
    18    18    21    1
    19    19    22    1
    20    19    23    1
    21    19    24    1
    22    25    26    1
    23    26    27    1
    24    26    28    1
    25    26    29    1
    26    27    30    1
    27    27    31    1
    28    27    32    1
    29    33    34    1
    30    34    35    1
    31    34    36    1
    32    34    37    1
    33    35    38    1
    34    35    39    1
    35    35    40    1
    36    41    42    1
    37    42    43    1
    38    42    44    1
    39    42    45    1
    40    43    46    1
    41    43    47    1
    42    43    48    1
    43    49    50    1
    44    50    51    1
    45    50    52    1
    46    50    53    1
    47    51    54    1
    48    51    55    1
    49    51    56    1
    50    57    58    1
    51    58    59    1
    52    58    60    1
    53    58    61    1
    54    59    62    1
    55    59    63    1
    56    59    64    1
    57    65    66    1
    58    66    67    1
    59    66    68    1
    60    66    69    1
    61    67    70    1
    62    67    71    1
    63    67    72    1
    64    73    74    1
    65    74    75    1
    66    74    76    1
    67    74    77    1
    68    75    78    1
    69    75    79    1
    70    75    80    1
    71    81    82    1
    72    82    83    1
    73    82    84    1
    74    82    85    1
    75    83    86    1
    76    83    87    1
    77    83    88    1
    78    89    90    1
    79    90    91    1
    80    90    92    1
    81    90    93    1
    82    91    94    1
    83    91    95    1
    84    91    96    1
    85    97    98    1
    86    98    99    1
    87    98   100    1
    88    98   101    1
    89    99   102    1
    90    99   103    1
    91    99   104    1
    92   105   106    1
    93   106   107    1
    94   106   108    1
    95   106   109    1
    96   107   110    1
    97   107   111    1
    98   107   112    1
    99   113   114    1
   100   114   115    1
   101   114   116    1
   102   114   117    1
   103   115   118    1
   104   115   119    1
   105   115   120    1
   106   121   122    1
   107   122   123    1
   108   122   124    1
   109   122   125    1
   110   123   126    1
   111   123   127    1
   112   123   128    1
   113   129   130    1
   114   130   131    1
   115   130   132    1
   116   130   133    1
   117   131   134    1
   118   131   135    1
   119   131   136    1
   120   137   138    1
   121   138   139    1
   122   138   140    1
   123   138   141    1
   124   139   142    1
   125   139   143    1
   126   139   144    1
   127   145   146    1
   128   146   147    1
   129   146   148    1
   130   146   149    1
   131   147   150    1
   132   147   151    1
   133   147   152    1
   134   153   154    1
   135   154   155    1
   136   154   156    1
   137   154   157    1
   138   155   158    1
   139   155   159    1
   140   155   160    1
   141   161   162    1
   142   162   163    1
   143   162   164    1
   144   162   165    1
   145   163   166    1
   146   163   167    1
   147   163   168    1
   148   169   170    1
   149   170   171    1
   150   170   172    1
   151   170   173    1
   152   171   174    1
   153   171   175    1
   154   171   176    1
   155   177   178    1
   156   178   179    1
   157   178   180    1
   158   178   181    1
   159   179   182    1
   160   179   183    1
   161   179   184    1
   162   185   186    1
   163   186   187    1
   164   186   188    1
   165   186   189    1
   166   187   190    1
   167   187   191    1
   168   187   192    1
   169   193   194    1
   170   194   195    1
   171   194   196    1
   172   194   197    1
   173   195   198    1
   174   195   199    1
   175   195   200    1
   176   201   202    1
   177   202   203    1
   178   202   204    1
   179   202   205    1
   180   203   206    1
   181   203   207    1
   182   203   208    1
   183   209   210    1
   184   210   211    1
   185   210   212    1
   186   210   213    1
   187   211   214    1
   188   211   215    1
   189   211   216    1
   190   217   218    1
   191   218   219    1
   192   218   220    1
   193   218   221    1
   194   219   222    1
   195   219   223    1
   196   219   224    1
   197   225   226    1
   198   226   227    1
   199   226   228    1
   200   226   229    1
   201   227   230    1
   202   227   231    1
   203   227   232    1
   204   233   234    1
   205   234   235    1
   206   234   236    1
   207   234   237    1
   208   235   238    1
   209   235   239    1
   210   235   240    1
   211   241   242    1
   212   242   243    1
   213   242   244    1
   214   242   245    1
   215   243   246    1
   216   243   247    1
   217   243   248    1
   218   249   250    1
   219   250   251    1
   220   250   252    1
   221   250   253    1
   222   251   254    1
   223   251   255    1
   224   251   256    1
   225   257   258    1
   226   258   259    1
   227   258   260    1
   228   258   261    1
   229   259   262    1
   230   259   263    1
   231   259   264    1
   232   265   266    1
   233   266   267    1
   234   266   268    1
   235   266   269    1
   236   267   270    1
   237   267   271    1
   238   267   272    1
   239   273   274    1
   240   274   275    1
   241   274   276    1
   242   274   277    1
   243   275   278    1
   244   275   279    1
   245   275   280    1
   246   281   282    1
   247   282   283    1
   248   282   284    1
   249   282   285    1
   250   283   286    1
   251   283   287    1
   252   283   288    1
   253   289   290    1
   254   290   291    1
   255   290   292    1
   256   290   293    1
   257   291   294    1
   258   291   295    1
   259   291   296    1
   260   297   298    1
   261   298   299    1
   262   298   300    1
   263   298   301    1
   264   299   302    1
   265   299   303    1
   266   299   304    1
   267   305   306    1
   268   306   307    1
   269   306   308    1
   270   306   309    1
   271   307   310    1
   272   307   311    1
   273   307   312    1
   274   313   314    1
   275   314   315    1
   276   314   316    1
   277   314   317    1
   278   315   318    1
   279   315   319    1
   280   315   320    1
   281   321   322    1
   282   322   323    1
   283   322   324    1
   284   322   325    1
   285   323   326    1
   286   323   327    1
   287   323   328    1
   288   329   330    1
   289   330   331    1
   290   330   332    1
   291   330   333    1
   292   331   334    1
   293   331   335    1
   294   331   336    1
   295   337   338    1
   296   338   339    1
   297   338   340    1
   298   338   341    1
   299   339   342    1
   300   339   343    1
   301   339   344    1
   302   345   346    1
   303   346   347    1
   304   346   348    1
   305   346   349    1
   306   347   350    1
   307   347   351    1
   308   347   352    1
   309   353   354    1
   310   354   355    1
   311   354   356    1
   312   354   357    1
   313   355   358    1
   314   355   359    1
   315   355   360    1
   316   361   362    1
   317   362   363    1
   318   362   364    1
   319   362   365    1
   320   363   366    1
   321   363   367    1
   322   363   368    1
   323   369   370    1
   324   370   371    1
   325   370   372    1
   326   370   373    1
   327   371   374    1
   328   371   375    1
   329   371   376    1
   330   377   378    1
   331   378   379    1
   332   378   380    1
   333   378   381    1
   334   379   382    1
   335   379   383    1
   336   379   384    1
   337   385   386    1
   338   386   387    1
   339   386   388    1
   340   386   389    1
   341   387   390    1
   342   387   391    1
   343   387   392    1
   344   393   394    1
   345   394   395    1
   346   394   396    1
   347   394   397    1
   348   395   398    1
   349   395   399    1
   350   395   400    1
   351   401   402    1
   352   402   403    1
   353   402   404    1
   354   402   405    1
   355   403   406    1
   356   403   407    1
   357   403   408    1
   358   409   410    1
   359   410   411    1
   360   410   412    1
   361   410   413    1
   362   411   414    1
   363   411   415    1
   364   411   416    1
   365   417   418    1
   366   418   419    1
   367   418   420    1
   368   418   421    1
   369   419   422    1
   370   419   423    1
   371   419   424    1
   372   425   426    1
   373   426   427    1
   374   426   428    1
   375   426   429    1
   376   427   430    1
   377   427   431    1
   378   427   432    1
   379   433   434    1
   380   434   435    1
   381   434   436    1
   382   434   437    1
   383   435   438    1
   384   435   439    1
   385   435   440    1
   386   441   442    1
   387   442   443    1
   388   442   444    1
   389   442   445    1
   390   443   446    1
   391   443   447    1
   392   443   448    1
   393   449   450    1
   394   450   451    1
   395   450   452    1
   396   450   453    1
   397   451   454    1
   398   451   455    1
   399   451   456    1
   400   457   458    1
   401   458   459    1
   402   458   460    1
   403   458   461    1
   404   459   462    1
   405   459   463    1
   406   459   464    1
   407   465   466    1
   408   466   467    1
   409   466   468    1
   410   466   469    1
   411   467   470    1
   412   467   471    1
   413   467   472    1
   414   473   474    1
   415   474   475    1
   416   474   476    1
   417   474   477    1
   418   475   478    1
   419   475   479    1
   420   475   480    1
   421   481   482    1
   422   482   483    1
   423   482   484    1
   424   482   485    1
   425   483   486    1
   426   483   487    1
   427   483   488    1
   428   489   490    1
   429   490   491    1
   430   490   492    1
   431   490   493    1
   432   491   494    1
   433   491   495    1
   434   491   496    1
   435   497   498    1
   436   498   499    1
   437   498   500    1
   438   498   501    1
   439   499   502    1
   440   499   503    1
   441   499   504    1
   442   505   506    1
   443   506   507    1
   444   506   508    1
   445   506   509    1
   446   507   510    1
   447   507   511    1
   448   507   512    1
   449   513   514    1
   450   514   515    1
   451   514   516    1
   452   514   517    1
   453   515   518    1
   454   515   519    1
   455   515   520    1
   456   521   522    1
   457   522   523    1
   458   522   524    1
   459   522   525    1
   460   523   526    1
   461   523   527    1
   462   523   528    1
   463   529   530    1
   464   530   531    1
   465   530   532    1
   466   530   533    1
   467   531   534    1
   468   531   535    1
   469   531   536    1
   470   537   538    1
   471   538   539    1
   472   538   540    1
   473   538   541    1
   474   539   542    1
   475   539   543    1
   476   539   544    1
   477   545   546    1
   478   546   547    1
   479   546   548    1
   480   546   549    1
   481   547   550    1
   482   547   551    1
   483   547   552    1
   484   553   554    1
   485   554   555    1
   486   554   556    1
   487   554   557    1
   488   555   558    1
   489   555   559    1
   490   555   560    1
   491   561   562    1
   492   562   563    1
   493   562   564    1
   494   562   565    1
   495   563   566    1
   496   563   567    1
   497   563   568    1
   498   569   570    1
   499   570   571    1
   500   570   572    1
   501   570   573    1
   502   571   574    1
   503   571   575    1
   504   571   576    1
   505   577   578    1
   506   578   579    1
   507   578   580    1
   508   578   581    1
   509   579   582    1
   510   579   583    1
   511   579   584    1
   512   585   586    1
   513   586   587    1
   514   586   588    1
   515   586   589    1
   516   587   590    1
   517   587   591    1
   518   587   592    1
   519   593   594    1
   520   594   595    1
   521   594   596    1
   522   594   597    1
   523   595   598    1
   524   595   599    1
   525   595   600    1
   526   601   602    1
   527   602   603    1
   528   602   604    1
   529   602   605    1
   530   603   606    1
   531   603   607    1
   532   603   608    1
   533   609   610    1
   534   610   611    1
   535   610   612    1
   536   610   613    1
   537   611   614    1
   538   611   615    1
   539   611   616    1
   540   617   618    1
   541   618   619    1
   542   618   620    1
   543   618   621    1
   544   619   622    1
   545   619   623    1
   546   619   624    1
   547   625   626    1
   548   626   627    1
   549   626   628    1
   550   626   629    1
   551   627   630    1
   552   627   631    1
   553   627   632    1
   554   633   634    1
   555   634   635    1
   556   634   636    1
   557   634   637    1
   558   635   638    1
   559   635   639    1
   560   635   640    1
   561   641   642    1
   562   642   643    1
   563   642   644    1
   564   642   645    1
   565   643   646    1
   566   643   647    1
   567   643   648    1
   568   649   650    1
   569   650   651    1
   570   650   652    1
   571   650   653    1
   572   651   654    1
   573   651   655    1
   574   651   656    1
   575   657   658    1
   576   658   659    1
   577   658   660    1
   578   658   661    1
   579   659   662    1
   580   659   663    1
   581   659   664    1
   582   665   666    1
   583   666   667    1
   584   666   668    1
   585   666   669    1
   586   667   670    1
   587   667   671    1
   588   667   672    1
   589   673   674    1
   590   674   675    1
   591   674   676    1
   592   674   677    1
   593   675   678    1
   594   675   679    1
   595   675   680    1
   596   681   682    1
   597   682   683    1
   598   682   684    1
   599   682   685    1
   600   683   686    1
   601   683   687    1
   602   683   688    1
   603   689   690    1
   604   690   691    1
   605   690   692    1
   606   690   693    1
   607   691   694    1
   608   691   695    1
   609   691   696    1
   610   697   698    1
   611   698   699    1
   612   698   700    1
   613   698   701    1
   614   699   702    1
   615   699   703    1
   616   699   704    1
   617   705   706    1
   618   706   707    1
   619   706   708    1
   620   706   709    1
   621   707   710    1
   622   707   711    1
   623   707   712    1
   624   713   714    1
   625   714   715    1
   626   714   716    1
   627   714   717    1
   628   715   718    1
   629   715   719    1
   630   715   720    1
   631   721   722    1
   632   722   723    1
   633   722   724    1
   634   722   725    1
   635   723   726    1
   636   723   727    1
   637   723   728    1
   638   729   730    1
   639   730   731    1
   640   730   732    1
   641   730   733    1
   642   731   734    1
   643   731   735    1
   644   731   736    1
   645   737   738    1
   646   738   739    1
   647   738   740    1
   648   738   741    1
   649   739   742    1
   650   739   743    1
   651   739   744    1
   652   745   746    1
   653   746   747    1
   654   746   748    1
   655   746   749    1
   656   747   750    1
   657   747   751    1
   658   747   752    1
   659   753   754    1
   660   754   755    1
   661   754   756    1
   662   754   757    1
   663   755   758    1
   664   755   759    1
   665   755   760    1
   666   761   762    1
   667   762   763    1
   668   762   764    1
   669   762   765    1
   670   763   766    1
   671   763   767    1
   672   763   768    1
   673   769   770    1
   674   770   771    1
   675   770   772    1
   676   770   773    1
   677   771   774    1
   678   771   775    1
   679   771   776    1
   680   777   778    1
   681   778   779    1
   682   778   780    1
   683   778   781    1
   684   779   782    1
   685   779   783    1
   686   779   784    1
   687   785   786    1
   688   786   787    1
   689   786   788    1
   690   786   789    1
   691   787   790    1
   692   787   791    1
   693   787   792    1
   694   793   794    1
   695   794   795    1
   696   794   796    1
   697   794   797    1
   698   795   798    1
   699   795   799    1
   700   795   800    1
   701   801   802    1
   702   802   803    1
   703   802   804    1
   704   802   805    1
   705   803   806    1
   706   803   807    1
   707   803   808    1
   708   809   810    1
   709   810   811    1
   710   810   812    1
   711   810   813    1
   712   811   814    1
   713   811   815    1
   714   811   816    1
   715   817   818    1
   716   818   819    1
   717   818   820    1
   718   818   821    1
   719   819   822    1
   720   819   823    1
   721   819   824    1
   722   825   826    1
   723   826   827    1
   724   826   828    1
   725   826   829    1
   726   827   830    1
   727   827   831    1
   728   827   832    1
   729   833   834    1
   730   834   835    1
   731   834   836    1
   732   834   837    1
   733   835   838    1
   734   835   839    1
   735   835   840    1
   736   841   842    1
   737   842   843    1
   738   842   844    1
   739   842   845    1
   740   843   846    1
   741   843   847    1
   742   843   848    1
   743   849   850    1
   744   850   851    1
   745   850   852    1
   746   850   853    1
   747   851   854    1
   748   851   855    1
   749   851   856    1
   750   857   858    1
   751   858   859    1
   752   858   860    1
   753   858   861    1
   754   859   862    1
   755   859   863    1
   756   859   864    1
   757   865   866    1
   758   866   867    1
   759   866   868    1
   760   866   869    1
   761   867   870    1
   762   867   871    1
   763   867   872    1
   764   873   874    1
   765   874   875    1
   766   874   876    1
   767   874   877    1
   768   875   878    1
   769   875   879    1
   770   875   880    1
   771   881   882    1
   772   882   883    1
   773   882   884    1
   774   882   885    1
   775   883   886    1
   776   883   887    1
   777   883   888    1
   778   889   890    1
   779   890   891    1
   780   890   892    1
   781   890   893    1
   782   891   894    1
   783   891   895    1
   784   891   896    1
   785   897   898    1
   786   898   899    1
   787   898   900    1
   788   898   901    1
   789   899   902    1
   790   899   903    1
   791   899   904    1
   792   905   906    1
   793   906   907    1
   794   906   908    1
   795   906   909    1
   796   907   910    1
   797   907   911    1
   798   907   912    1
   799   913   914    1
   800   914   915    1
   801   914   916    1
   802   914   917    1
   803   915   918    1
   804   915   919    1
   805   915   920    1
   806   921   922    1
   807   922   923    1
   808   922   924    1
   809   922   925    1
   810   923   926    1
   811   923   927    1
   812   923   928    1
   813   929   930    1
   814   930   931    1
   815   930   932    1
   816   930   933    1
   817   931   934    1
   818   931   935    1
   819   931   936    1
   820   937   938    1
   821   938   939    1
   822   938   940    1
   823   938   941    1
   824   939   942    1
   825   939   943    1
   826   939   944    1
   827   945   946    1
   828   946   947    1
   829   946   948    1
   830   946   949    1
   831   947   950    1
   832   947   951    1
   833   947   952    1
   834   953   954    1
   835   954   955    1
   836   954   956    1
   837   954   957    1
   838   955   958    1
   839   955   959    1
   840   955   960    1
   841   961   962    1
   842   962   963    1
   843   962   964    1
   844   962   965    1
   845   963   966    1
   846   963   967    1
   847   963   968    1
   848   969   970    1
   849   970   971    1
   850   970   972    1
   851   970   973    1
   852   971   974    1
   853   971   975    1
   854   971   976    1
   855   977   978    1
   856   978   979    1
   857   978   980    1
   858   978   981    1
   859   979   982    1
   860   979   983    1
   861   979   984    1
   862   985   986    1
   863   986   987    1
   864   986   988    1
   865   986   989    1
   866   987   990    1
   867   987   991    1
   868   987   992    1
   869   993   994    1
   870   994   995    1
   871   994   996    1
   872   994   997    1
   873   995   998    1
   874   995   999    1
   875   995  1000    1
   876  1001  1002    1
   877  1002  1003    1
   878  1002  1004    1
   879  1002  1005    1
   880  1003  1006    1
   881  1003  1007    1
   882  1003  1008    1
   883  1009  1010    1
   884  1010  1011    1
   885  1010  1012    1
   886  1010  1013    1
   887  1011  1014    1
   888  1011  1015    1
   889  1011  1016    1
   890  1017  1018    1
   891  1018  1019    1
   892  1018  1020    1
   893  1018  1021    1
   894  1019  1022    1
   895  1019  1023    1
   896  1019  1024    1
   897  1025  1026    1
   898  1026  1027    1
   899  1026  1028    1
   900  1026  1029    1
   901  1027  1030    1
   902  1027  1031    1
   903  1027  1032    1
   904  1033  1034    1
   905  1034  1035    1
   906  1034  1036    1
   907  1034  1037    1
   908  1035  1038    1
   909  1035  1039    1
   910  1035  1040    1
   911  1041  1042    1
   912  1042  1043    1
   913  1042  1044    1
   914  1042  1045    1
   915  1043  1046    1
   916  1043  1047    1
   917  1043  1048    1
   918  1049  1050    1
   919  1050  1051    1
   920  1050  1052    1
   921  1050  1053    1
   922  1051  1054    1
   923  1051  1055    1
   924  1051  1056    1
   925  1057  1058    1
   926  1058  1059    1
   927  1058  1060    1
   928  1058  1061    1
   929  1059  1062    1
   930  1059  1063    1
   931  1059  1064    1
   932  1065  1066    1
   933  1066  1067    1
   934  1066  1068    1
   935  1066  1069    1
   936  1067  1070    1
   937  1067  1071    1
   938  1067  1072    1
   939  1073  1074    1
   940  1074  1075    1
   941  1074  1076    1
   942  1074  1077    1
   943  1075  1078    1
   944  1075  1079    1
   945  1075  1080    1
   946  1081  1082    1
   947  1082  1083    1
   948  1082  1084    1
   949  1082  1085    1
   950  1083  1086    1
   951  1083  1087    1
   952  1083  1088    1
   953  1089  1090    1
   954  1090  1091    1
   955  1090  1092    1
   956  1090  1093    1
   957  1091  1094    1
   958  1091  1095    1
   959  1091  1096    1
   960  1097  1098    1
   961  1098  1099    1
   962  1098  1100    1
   963  1098  1101    1
   964  1099  1102    1
   965  1099  1103    1
   966  1099  1104    1
   967  1105  1106    1
   968  1106  1107    1
   969  1106  1108    1
   970  1106  1109    1
   971  1107  1110    1
   972  1107  1111    1
   973  1107  1112    1
   974  1113  1114    1
   975  1114  1115    1
   976  1114  1116    1
   977  1114  1117    1
   978  1115  1118    1
   979  1115  1119    1
   980  1115  1120    1
   981  1121  1122    1
   982  1122  1123    1
   983  1122  1124    1
   984  1122  1125    1
   985  1123  1126    1
   986  1123  1127    1
   987  1123  1128    1
   988  1129  1130    1
   989  1130  1131    1
   990  1130  1132    1
   991  1130  1133    1
   992  1131  1134    1
   993  1131  1135    1
   994  1131  1136    1
   995  1137  1138    1
   996  1138  1139    1
   997  1138  1140    1
   998  1138  1141    1
   999  1139  1142    1
  1000  1139  1143    1
  1001  1139  1144    1
  1002  1145  1146    1
  1003  1146  1147    1
  1004  1146  1148    1
  1005  1146  1149    1
  1006  1147  1150    1
  1007  1147  1151    1
  1008  1147  1152    1
  1009  1153  1154    1
  1010  1154  1155    1
  1011  1154  1156    1
  1012  1154  1157    1
  1013  1155  1158    1
  1014  1155  1159    1
  1015  1155  1160    1
  1016  1161  1162    1
  1017  1162  1163    1
  1018  1162  1164    1
  1019  1162  1165    1
  1020  1163  1166    1
  1021  1163  1167    1
  1022  1163  1168    1
  1023  1169  1170    1
  1024  1170  1171    1
  1025  1170  1172    1
  1026  1170  1173    1
  1027  1171  1174    1
  1028  1171  1175    1
  1029  1171  1176    1
  1030  1177  1178    1
  1031  1178  1179    1
  1032  1178  1180    1
  1033  1178  1181    1
  1034  1179  1182    1
  1035  1179  1183    1
  1036  1179  1184    1
  1037  1185  1186    1
  1038  1186  1187    1
  1039  1186  1188    1
  1040  1186  1189    1
  1041  1187  1190    1
  1042  1187  1191    1
  1043  1187  1192    1
  1044  1193  1194    1
  1045  1194  1195    1
  1046  1194  1196    1
  1047  1194  1197    1
  1048  1195  1198    1
  1049  1195  1199    1
  1050  1195  1200    1
  1051  1201  1202    1
  1052  1202  1203    1
  1053  1202  1204    1
  1054  1202  1205    1
  1055  1203  1206    1
  1056  1203  1207    1
  1057  1203  1208    1
  1058  1209  1210    1
  1059  1210  1211    1
  1060  1210  1212    1
  1061  1210  1213    1
  1062  1211  1214    1
  1063  1211  1215    1
  1064  1211  1216    1
  1065  1217  1218    1
  1066  1218  1219    1
  1067  1218  1220    1
  1068  1218  1221    1
  1069  1219  1222    1
  1070  1219  1223    1
  1071  1219  1224    1
  1072  1225  1226    1
  1073  1226  1227    1
  1074  1226  1228    1
  1075  1226  1229    1
  1076  1227  1230    1
  1077  1227  1231    1
  1078  1227  1232    1
  1079  1233  1234    1
  1080  1234  1235    1
  1081  1234  1236    1
  1082  1234  1237    1
  1083  1235  1238    1
  1084  1235  1239    1
  1085  1235  1240    1
  1086  1241  1242    1
  1087  1242  1243    1
  1088  1242  1244    1
  1089  1242  1245    1
  1090  1243  1246    1
  1091  1243  1247    1
  1092  1243  1248    1
  1093  1249  1250    1
  1094  1250  1251    1
  1095  1250  1252    1
  1096  1250  1253    1
  1097  1251  1254    1
  1098  1251  1255    1
  1099  1251  1256    1
  1100  1257  1258    1
  1101  1258  1259    1
  1102  1258  1260    1
  1103  1258  1261    1
  1104  1259  1262    1
  1105  1259  1263    1
  1106  1259  1264    1
  1107  1265  1266    1
  1108  1266  1267    1
  1109  1266  1268    1
  1110  1266  1269    1
  1111  1267  1270    1
  1112  1267  1271    1
  1113  1267  1272    1
  1114  1273  1274    1
  1115  1274  1275    1
  1116  1274  1276    1
  1117  1274  1277    1
  1118  1275  1278    1
  1119  1275  1279    1
  1120  1275  1280    1
  1121  1281  1282    1
  1122  1282  1283    1
  1123  1282  1284    1
  1124  1282  1285    1
  1125  1283  1286    1
  1126  1283  1287    1
  1127  1283  1288    1
  1128  1289  1290    1
  1129  1290  1291    1
  1130  1290  1292    1
  1131  1290  1293    1
  1132  1291  1294    1
  1133  1291  1295    1
  1134  1291  1296    1
  1135  1297  1298    1
  1136  1298  1299    1
  1137  1298  1300    1
  1138  1298  1301    1
  1139  1299  1302    1
  1140  1299  1303    1
  1141  1299  1304    1
  1142  1305  1306    1
  1143  1306  1307    1
  1144  1306  1308    1
  1145  1306  1309    1
  1146  1307  1310    1
  1147  1307  1311    1
  1148  1307  1312    1
  1149  1313  1314    1
  1150  1314  1315    1
  1151  1314  1316    1
  1152  1314  1317    1
  1153  1315  1318    1
  1154  1315  1319    1
  1155  1315  1320    1
  1156  1321  1322    1
  1157  1322  1323    1
  1158  1322  1324    1
  1159  1322  1325    1
  1160  1323  1326    1
  1161  1323  1327    1
  1162  1323  1328    1
  1163  1329  1330    1
  1164  1330  1331    1
  1165  1330  1332    1
  1166  1330  1333    1
  1167  1331  1334    1
  1168  1331  1335    1
  1169  1331  1336    1
  1170  1337  1338    1
  1171  1338  1339    1
  1172  1338  1340    1
  1173  1338  1341    1
  1174  1339  1342    1
  1175  1339  1343    1
  1176  1339  1344    1
  1177  1345  1346    1
  1178  1346  1347    1
  1179  1346  1348    1
  1180  1346  1349    1
  1181  1347  1350    1
  1182  1347  1351    1
  1183  1347  1352    1
  1184  1353  1354    1
  1185  1354  1355    1
  1186  1354  1356    1
  1187  1354  1357    1
  1188  1355  1358    1
  1189  1355  1359    1
  1190  1355  1360    1
  1191  1361  1362    1
  1192  1362  1363    1
  1193  1362  1364    1
  1194  1362  1365    1
  1195  1363  1366    1
  1196  1363  1367    1
  1197  1363  1368    1
  1198  1369  1370    1
  1199  1370  1371    1
  1200  1370  1372    1
  1201  1370  1373    1
  1202  1371  1374    1
  1203  1371  1375    1
  1204  1371  1376    1
  1205  1377  1378    1
  1206  1378  1379    1
  1207  1378  1380    1
  1208  1378  1381    1
  1209  1379  1382    1
  1210  1379  1383    1
  1211  1379  1384    1
  1212  1385  1386    1
  1213  1386  1387    1
  1214  1386  1388    1
  1215  1386  1389    1
  1216  1387  1390    1
  1217  1387  1391    1
  1218  1387  1392    1
  1219  1393  1394    1
  1220  1394  1395    1
  1221  1394  1396    1
  1222  1394  1397    1
  1223  1395  1398    1
  1224  1395  1399    1
  1225  1395  1400    1
  1226  1401  1402    1
  1227  1402  1403    1
  1228  1402  1404    1
  1229  1402  1405    1
  1230  1403  1406    1
  1231  1403  1407    1
  1232  1403  1408    1
  1233  1409  1410    1
  1234  1410  1411    1
  1235  1410  1412    1
  1236  1410  1413    1
  1237  1411  1414    1
  1238  1411  1415    1
  1239  1411  1416    1
  1240  1417  1418    1
  1241  1418  1419    1
  1242  1418  1420    1
  1243  1418  1421    1
  1244  1419  1422    1
  1245  1419  1423    1
  1246  1419  1424    1
  1247  1425  1426    1
  1248  1426  1427    1
  1249  1426  1428    1
  1250  1426  1429    1
  1251  1427  1430    1
  1252  1427  1431    1
  1253  1427  1432    1
  1254  1433  1434    1
  1255  1434  1435    1
  1256  1434  1436    1
  1257  1434  1437    1
  1258  1435  1438    1
  1259  1435  1439    1
  1260  1435  1440    1
  1261  1441  1442    1
  1262  1442  1443    1
  1263  1442  1444    1
  1264  1442  1445    1
  1265  1443  1446    1
  1266  1443  1447    1
  1267  1443  1448    1
  1268  1449  1450    1
  1269  1450  1451    1
  1270  1450  1452    1
  1271  1450  1453    1
  1272  1451  1454    1
  1273  1451  1455    1
  1274  1451  1456    1
  1275  1457  1458    1
  1276  1458  1459    1
  1277  1458  1460    1
  1278  1458  1461    1
  1279  1459  1462    1
  1280  1459  1463    1
  1281  1459  1464    1
  1282  1465  1466    1
  1283  1466  1467    1
  1284  1466  1468    1
  1285  1466  1469    1
  1286  1467  1470    1
  1287  1467  1471    1
  1288  1467  1472    1
  1289  1473  1474    1
  1290  1474  1475    1
  1291  1474  1476    1
  1292  1474  1477    1
  1293  1475  1478    1
  1294  1475  1479    1
  1295  1475  1480    1
  1296  1481  1482    1
  1297  1482  1483    1
  1298  1482  1484    1
  1299  1482  1485    1
  1300  1483  1486    1
  1301  1483  1487    1
  1302  1483  1488    1
  1303  1489  1490    1
  1304  1490  1491    1
  1305  1490  1492    1
  1306  1490  1493    1
  1307  1491  1494    1
  1308  1491  1495    1
  1309  1491  1496    1
  1310  1497  1498    1
  1311  1498  1499    1
  1312  1498  1500    1
  1313  1498  1501    1
  1314  1499  1502    1
  1315  1499  1503    1
  1316  1499  1504    1
