@<TRIPOS>MOLECULE
*****
 96 84 0 0 0
SMALL
GASTEIGER

@<TRIPOS>ATOM
      1 CL          2.0761    2.4545   -0.4747 Cl      1  UNL1       -0.1257
      2 C           0.9949    1.8476    0.7978 C.3     1  UNL1        0.0198
      3 C           0.9800    0.3335    0.8041 C.3     1  UNL1       -0.0517
      4 H           1.3501    2.2364    1.7564 H       1  UNL1        0.0427
      5 H          -0.0061    2.2450    0.6081 H       1  UNL1        0.0427
      6 H           0.3123   -0.0338    1.5899 H       1  UNL1        0.0241
      7 H           0.6246   -0.0635   -0.1525 H       1  UNL1        0.0241
      8 H           1.9791   -0.0721    0.9943 H       1  UNL1        0.0241
      9 CL          0.0385   -0.7964    5.4833 Cl      2  UNL2       -0.1257
     10 C           1.2284    0.0844    4.5010 C.3     2  UNL2        0.0198
     11 C           0.8749    1.5550    4.4315 C.3     2  UNL2       -0.0517
     12 H           2.2128   -0.0573    4.9560 H       2  UNL2        0.0427
     13 H           1.2371   -0.3605    3.5020 H       2  UNL2        0.0427
     14 H           1.6116    2.0918    3.8252 H       2  UNL2        0.0241
     15 H          -0.1095    1.7051    3.9763 H       2  UNL2        0.0241
     16 H           0.8650    2.0080    5.4284 H       2  UNL2        0.0241
     17 CL          6.9123    1.2267    1.5204 Cl      3  UNL3       -0.1257
     18 C           6.2434   -0.2289    0.7521 C.3     3  UNL3        0.0198
     19 C           4.7719   -0.0406    0.4492 C.3     3  UNL3       -0.0517
     20 H           6.8080   -0.4159   -0.1657 H       3  UNL3        0.0427
     21 H           6.3949   -1.0704    1.4340 H       3  UNL3        0.0427
     22 H           4.3660   -0.9406   -0.0238 H       3  UNL3        0.0241
     23 H           4.1995    0.1464    1.3637 H       3  UNL3        0.0241
     24 H           4.6121    0.8000   -0.2339 H       3  UNL3        0.0241
     25 CL          7.4063    1.4340    5.2390 Cl      4  UNL4       -0.1257
     26 C           6.0817    0.3978    4.6659 C.3     4  UNL4        0.0198
     27 C           4.8573    1.2295    4.3469 C.3     4  UNL4       -0.0517
     28 H           6.4309   -0.1358    3.7774 H       4  UNL4        0.0427
     29 H           5.8616   -0.3328    5.4493 H       4  UNL4        0.0427
     30 H           4.0453    0.5854    3.9945 H       4  UNL4        0.0241
     31 H           4.5011    1.7665    5.2321 H       4  UNL4        0.0241
     32 H           5.0697    1.9632    3.5624 H       4  UNL4        0.0241
     33 CL          7.3493    0.6348    8.3005 Cl      5  UNL5       -0.1257
     34 C           6.3064   -0.7929    8.1250 C.3     5  UNL5        0.0198
     35 C           4.8573   -0.3774    7.9830 C.3     5  UNL5       -0.0517
     36 H           6.6394   -1.3478    7.2434 H       5  UNL5        0.0427
     37 H           6.4450   -1.4227    9.0082 H       5  UNL5        0.0427
     38 H           4.2204   -1.2612    7.8753 H       5  UNL5        0.0241
     39 H           4.5162    0.1783    8.8626 H       5  UNL5        0.0241
     40 H           4.7103    0.2531    7.1000 H       5  UNL5        0.0241
     41 CL         11.4178    1.8209   -0.4913 Cl      6  UNL6       -0.1257
     42 C           9.8764    1.2382    0.1731 C.3     6  UNL6        0.0198
     43 C           9.9440   -0.2499    0.4441 C.3     6  UNL6       -0.0517
     44 H           9.6752    1.7920    1.0946 H       6  UNL6        0.0427
     45 H           9.0892    1.4657   -0.5511 H       6  UNL6        0.0427
     46 H           8.9918   -0.6024    0.8531 H       6  UNL6        0.0241
     47 H          10.1445   -0.8115   -0.4742 H       6  UNL6        0.0241
     48 H          10.7298   -0.4857    1.1693 H       6  UNL6        0.0241
     49 CL         12.6962    1.4353    4.5130 Cl      7  UNL7       -0.1257
     50 C          11.6427    0.1734    3.8389 C.3     7  UNL7        0.0198
     51 C          10.2355    0.7004    3.6527 C.3     7  UNL7       -0.0517
     52 H          12.0675   -0.1459    2.8830 H       7  UNL7        0.0427
     53 H          11.6511   -0.6764    4.5272 H       7  UNL7        0.0427
     54 H           9.5918   -0.0815    3.2373 H       7  UNL7        0.0241
     55 H           9.8029    1.0216    4.6059 H       7  UNL7        0.0241
     56 H          10.2187    1.5514    2.9639 H       7  UNL7        0.0241
     57 CL         12.9939   -0.2409    9.0822 Cl      8  UNL8       -0.1257
     58 C          12.3279    0.4584    7.5908 C.3     8  UNL8        0.0198
     59 C          10.8613    0.7899    7.7690 C.3     8  UNL8       -0.0517
     60 H          12.9033    1.3577    7.3535 H       8  UNL8        0.0427
     61 H          12.4667   -0.2687    6.7858 H       8  UNL8        0.0427
     62 H          10.4572    1.2202    6.8471 H       8  UNL8        0.0241
     63 H          10.2782   -0.1060    8.0062 H       8  UNL8        0.0241
     64 H          10.7142    1.5183    8.5732 H       8  UNL8        0.0241
     65 CL         17.0591    1.3392    0.6332 Cl      9  UNL9       -0.1257
     66 C          15.8484    0.1564    0.0930 C.3     9  UNL9        0.0198
     67 C          14.4626    0.5748    0.5372 C.3     9  UNL9       -0.0517
     68 H          15.9034    0.0911   -0.9974 H       9  UNL9        0.0427
     69 H          16.1146   -0.8163    0.5159 H       9  UNL9        0.0427
     70 H          13.7217   -0.1577    0.2014 H       9  UNL9        0.0241
     71 H          14.3994    0.6418    1.6283 H       9  UNL9        0.0241
     72 H          14.1885    1.5480    0.1170 H       9  UNL9        0.0241
     73 CL         18.4066    0.8640    3.9819 Cl     10  UNL10      -0.1257
     74 C          16.9407   -0.1070    3.7269 C.3    10  UNL10       0.0198
     75 C          15.7021    0.7472    3.8963 C.3    10  UNL10      -0.0517
     76 H          16.9865   -0.5290    2.7189 H      10  UNL10       0.0427
     77 H          16.9489   -0.9269    4.4505 H      10  UNL10       0.0427
     78 H          14.8029    0.1433    3.7379 H      10  UNL10       0.0241
     79 H          15.6487    1.1729    4.9037 H      10  UNL10       0.0241
     80 H          15.6863    1.5703    3.1744 H      10  UNL10       0.0241
     81 CL         15.6090    1.8693    8.0846 Cl     11  UNL11      -0.1257
     82 C          17.1274    1.4459    7.2649 C.3    11  UNL11       0.0198
     83 C          17.2243   -0.0522    7.0677 C.3    11  UNL11      -0.0517
     84 H          17.1483    1.9663    6.3032 H      11  UNL11       0.0427
     85 H          17.9556    1.8111    7.8788 H      11  UNL11       0.0427
     86 H          18.1615   -0.3063    6.5625 H      11  UNL11       0.0241
     87 H          17.2047   -0.5805    8.0266 H      11  UNL11       0.0241
     88 H          16.3985   -0.4254    6.4531 H      11  UNL11       0.0241
     89 CL         22.9860   -0.9172    0.1882 Cl     12  UNL12      -0.1257
     90 C          21.2261   -0.9497   -0.0534 C.3    12  UNL12       0.0198
     91 C          20.5059   -0.7390    1.2618 C.3    12  UNL12      -0.0517
     92 H          20.9689   -0.1622   -0.7675 H      12  UNL12       0.0427
     93 H          20.9631   -1.9174   -0.4895 H      12  UNL12       0.0427
     94 H          19.4226   -0.7600    1.1061 H      12  UNL12       0.0241
     95 H          20.7579   -1.5242    1.9821 H      12  UNL12       0.0241
     96 H          20.7637    0.2288    1.7044 H      12  UNL12       0.0241
@<TRIPOS>BOND
     1     1     2    1
     2     2     3    1
     3     2     4    1
     4     2     5    1
     5     3     6    1
     6     3     7    1
     7     3     8    1
     8     9    10    1
     9    10    11    1
    10    10    12    1
    11    10    13    1
    12    11    14    1
    13    11    15    1
    14    11    16    1
    15    17    18    1
    16    18    19    1
    17    18    20    1
    18    18    21    1
    19    19    22    1
    20    19    23    1
    21    19    24    1
    22    25    26    1
    23    26    27    1
    24    26    28    1
    25    26    29    1
    26    27    30    1
    27    27    31    1
    28    27    32    1
    29    33    34    1
    30    34    35    1
    31    34    36    1
    32    34    37    1
    33    35    38    1
    34    35    39    1
    35    35    40    1
    36    41    42    1
    37    42    43    1
    38    42    44    1
    39    42    45    1
    40    43    46    1
    41    43    47    1
    42    43    48    1
    43    49    50    1
    44    50    51    1
    45    50    52    1
    46    50    53    1
    47    51    54    1
    48    51    55    1
    49    51    56    1
    50    57    58    1
    51    58    59    1
    52    58    60    1
    53    58    61    1
    54    59    62    1
    55    59    63    1
    56    59    64    1
    57    65    66    1
    58    66    67    1
    59    66    68    1
    60    66    69    1
    61    67    70    1
    62    67    71    1
    63    67    72    1
    64    73    74    1
    65    74    75    1
    66    74    76    1
    67    74    77    1
    68    75    78    1
    69    75    79    1
    70    75    80    1
    71    81    82    1
    72    82    83    1
    73    82    84    1
    74    82    85    1
    75    83    86    1
    76    83    87    1
    77    83    88    1
    78    89    90    1
    79    90    91    1
    80    90    92    1
    81    90    93    1
    82    91    94    1
    83    91    95    1
    84    91    96    1
