@<TRIPOS>MOLECULE
*****
 248 217 0 0 0
SMALL
GASTEIGER

@<TRIPOS>ATOM
      1 CL          3.4680    1.5472    0.8013 Cl      1  UNL1       -0.1257
      2 C           1.9430    0.6497    0.9613 C.3     1  UNL1        0.0198
      3 C           0.7642    1.5457    0.6444 C.3     1  UNL1       -0.0517
      4 H           1.9790   -0.2017    0.2759 H       1  UNL1        0.0427
      5 H           1.8795    0.2722    1.9857 H       1  UNL1        0.0427
      6 H          -0.1718    0.9870    0.7448 H       1  UNL1        0.0241
      7 H           0.7210    2.4005    1.3272 H       1  UNL1        0.0241
      8 H           0.8204    1.9272   -0.3804 H       1  UNL1        0.0241
      9 CL         -1.8849    1.7785    5.6967 Cl      2  UNL2       -0.1257
     10 C          -0.1122    1.7762    5.5779 C.3     2  UNL2        0.0198
     11 C           0.4296    3.1848    5.7001 C.3     2  UNL2       -0.0517
     12 H           0.2788    1.1392    6.3763 H       2  UNL2        0.0427
     13 H           0.1609    1.3374    4.6142 H       2  UNL2        0.0427
     14 H           1.5218    3.1765    5.6261 H       2  UNL2        0.0241
     15 H           0.0431    3.8289    4.9034 H       2  UNL2        0.0241
     16 H           0.1608    3.6310    6.6632 H       2  UNL2        0.0241
     17 CL          2.9729    1.5452    9.6594 Cl      3  UNL3       -0.1257
     18 C           1.4751    0.6191    9.4234 C.3     3  UNL3        0.0198
     19 C           0.3039    1.5523    9.1995 C.3     3  UNL3       -0.0517
     20 H           1.6175   -0.0390    8.5616 H       3  UNL3        0.0427
     21 H           1.3159    0.0026   10.3124 H       3  UNL3        0.0427
     22 H          -0.6154    0.9758    9.0548 H       3  UNL3        0.0241
     23 H           0.1545    2.2143   10.0587 H       3  UNL3        0.0241
     24 H           0.4557    2.1728    8.3102 H       3  UNL3        0.0241
     25 CL          2.5404    2.9018   17.4515 Cl      4  UNL4       -0.1257
     26 C           1.5652    1.6185   16.7040 C.3     4  UNL4        0.0198
     27 C           0.1195    1.7278   17.1408 C.3     4  UNL4       -0.0517
     28 H           1.6513    1.7182   15.6183 H       4  UNL4        0.0427
     29 H           1.9891    0.6555   17.0020 H       4  UNL4        0.0427
     30 H          -0.4756    0.9348   16.6770 H       4  UNL4        0.0241
     31 H           0.0249    1.6282   18.2271 H       4  UNL4        0.0241
     32 H          -0.3124    2.6896   16.8452 H       4  UNL4        0.0241
     33 CL          3.3028    1.5147   20.5734 Cl      5  UNL5       -0.1257
     34 C           2.0730    0.3259   21.0542 C.3     5  UNL5        0.0198
     35 C           0.7429    1.0072   21.2979 C.3     5  UNL5       -0.0517
     36 H           1.9889   -0.4151   20.2542 H       5  UNL5        0.0427
     37 H           2.4243   -0.1754   21.9604 H       5  UNL5        0.0427
     38 H          -0.0100    0.2696   21.5936 H       5  UNL5        0.0241
     39 H           0.8189    1.7504   22.0984 H       5  UNL5        0.0241
     40 H           0.3841    1.5110   20.3944 H       5  UNL5        0.0241
     41 CL          3.6172    1.0651   25.2248 Cl      6  UNL6       -0.1257
     42 C           2.1070    0.1409   25.0766 C.3     6  UNL6        0.0198
     43 C           0.9110    1.0686   25.1168 C.3     6  UNL6       -0.0517
     44 H           2.1397   -0.4099   24.1323 H       6  UNL6        0.0427
     45 H           2.0689   -0.5777   25.9001 H       6  UNL6        0.0427
     46 H          -0.0158    0.4932   25.0251 H       6  UNL6        0.0241
     47 H           0.8710    1.6234   26.0600 H       6  UNL6        0.0241
     48 H           0.9417    1.7910   24.2945 H       6  UNL6        0.0241
     49 CL          9.8220    1.7408    1.1101 Cl      7  UNL7       -0.1257
     50 C           8.3756    0.7099    1.1531 C.3     7  UNL7        0.0198
     51 C           7.1234    1.5454    0.9897 C.3     7  UNL7       -0.0517
     52 H           8.4604   -0.0244    0.3470 H       7  UNL7        0.0427
     53 H           8.3669    0.1803    2.1098 H       7  UNL7        0.0427
     54 H           6.2363    0.9046    1.0171 H       7  UNL7        0.0241
     55 H           7.0311    2.2828    1.7938 H       7  UNL7        0.0241
     56 H           7.1244    2.0784    0.0333 H       7  UNL7        0.0241
     57 CL          3.8628    1.6760    6.2511 Cl      8  UNL8       -0.1257
     58 C           5.1590    0.8487    5.3612 C.3     8  UNL8        0.0198
     59 C           6.4936    1.5118    5.6291 C.3     8  UNL8       -0.0517
     60 H           5.1738   -0.1970    5.6811 H       8  UNL8        0.0427
     61 H           4.9139    0.8856    4.2961 H       8  UNL8        0.0427
     62 H           7.2876    0.9976    5.0781 H       8  UNL8        0.0241
     63 H           6.4869    2.5594    5.3106 H       8  UNL8        0.0241
     64 H           6.7465    1.4782    6.6939 H       8  UNL8        0.0241
     65 CL          8.2141    2.8154    8.7386 Cl      9  UNL9       -0.1257
     66 C           7.4569    1.3585    9.4173 C.3     9  UNL9        0.0198
     67 C           8.3984    0.1766    9.3198 C.3     9  UNL9       -0.0517
     68 H           7.2007    1.5658   10.4601 H       9  UNL9        0.0427
     69 H           6.5347    1.1672    8.8615 H       9  UNL9        0.0427
     70 H           7.9261   -0.7174    9.7394 H       9  UNL9        0.0241
     71 H           8.6591   -0.0378    8.2782 H       9  UNL9        0.0241
     72 H           9.3242    0.3603    9.8747 H       9  UNL9        0.0241
     73 CL          3.6859    3.0768   14.1563 Cl     10  UNL10      -0.1257
     74 C           4.6965    1.8915   13.3018 C.3    10  UNL10       0.0198
     75 C           3.9156    0.6217   13.0361 C.3    10  UNL10      -0.0517
     76 H           5.0301    2.3456   12.3645 H      10  UNL10       0.0427
     77 H           5.5731    1.6855   13.9225 H      10  UNL10       0.0427
     78 H           4.5437   -0.1041   12.5097 H      10  UNL10       0.0241
     79 H           3.5787    0.1605   13.9702 H      10  UNL10       0.0241
     80 H           3.0364    0.8198   12.4142 H      10  UNL10       0.0241
     81 CL          6.2343    1.3838   17.4237 Cl     11  UNL11      -0.1257
     82 C           7.9338    1.0171   17.0578 C.3    11  UNL11       0.0198
     83 C           8.1428   -0.4787   16.9508 C.3    11  UNL11      -0.0517
     84 H           8.1913    1.5134   16.1178 H      11  UNL11       0.0427
     85 H           8.5497    1.4391   17.8568 H      11  UNL11       0.0427
     86 H           9.1914   -0.6978   16.7253 H      11  UNL11       0.0241
     87 H           7.8877   -0.9829   17.8887 H      11  UNL11       0.0241
     88 H           7.5297   -0.9086   16.1520 H      11  UNL11       0.0241
     89 CL          9.8071    1.5535   20.4133 Cl     12  UNL12      -0.1257
     90 C           8.1680    0.8873   20.5753 C.3    12  UNL12       0.0198
     91 C           7.1508    2.0028   20.6915 C.3    12  UNL12      -0.0517
     92 H           7.9669    0.2684   19.6963 H      12  UNL12       0.0427
     93 H           8.1490    0.2502   21.4639 H      12  UNL12       0.0427
     94 H           6.1435    1.5859   20.7910 H      12  UNL12       0.0241
     95 H           7.3452    2.6268   21.5701 H      12  UNL12       0.0241
     96 H           7.1634    2.6449   19.8047 H      12  UNL12       0.0241
     97 CL          9.8369    0.2837   25.3733 Cl     13  UNL13      -0.1257
     98 C           8.2920   -0.5937   25.3733 C.3    13  UNL13       0.0198
     99 C           7.1302    0.3773   25.3733 C.3    13  UNL13      -0.0517
    100 H           8.2656   -1.2308   24.4847 H      13  UNL13       0.0427
    101 H           8.2656   -1.2308   26.2618 H      13  UNL13       0.0427
    102 H           6.1817   -0.1694   25.3733 H      13  UNL13       0.0241
    103 H           7.1492    1.0184   26.2607 H      13  UNL13       0.0241
    104 H           7.1492    1.0184   24.4859 H      13  UNL13       0.0241
    105 CL         15.7794   -0.4767    0.9170 Cl     14  UNL14      -0.1257
    106 C          14.3143    0.5278    0.8810 C.3    14  UNL14       0.0198
    107 C          14.6787    1.9948    0.7935 C.3    14  UNL14      -0.0517
    108 H          13.7178    0.2236    0.0162 H      14  UNL14       0.0427
    109 H          13.7424    0.3233    1.7904 H      14  UNL14       0.0427
    110 H          13.7720    2.6079    0.7716 H      14  UNL14       0.0241
    111 H          15.2757    2.3073    1.6565 H      14  UNL14       0.0241
    112 H          15.2511    2.2078   -0.1153 H      14  UNL14       0.0241
    113 CL         11.3071    0.5553    5.5298 Cl     15  UNL15      -0.1257
    114 C          12.3393    1.9890    5.3409 C.3    15  UNL15       0.0198
    115 C          13.7980    1.5881    5.2770 C.3    15  UNL15      -0.0517
    116 H          12.0376    2.5037    4.4243 H      15  UNL15       0.0427
    117 H          12.1557    2.6516    6.1913 H      15  UNL15       0.0427
    118 H          14.4284    2.4755    5.1606 H      15  UNL15       0.0241
    119 H          14.1080    1.0725    6.1919 H      15  UNL15       0.0241
    120 H          13.9901    0.9248    4.4272 H      15  UNL15       0.0241
    121 CL         13.7041    3.2405    8.5102 Cl     16  UNL16      -0.1257
    122 C          14.5148    1.6927    8.8326 C.3    16  UNL16       0.0198
    123 C          13.5029    0.5688    8.9061 C.3    16  UNL16      -0.0517
    124 H          15.2349    1.5150    8.0289 H      16  UNL16       0.0427
    125 H          15.0595    1.7871    9.7762 H      16  UNL16       0.0427
    126 H          14.0085   -0.3816    9.1049 H      16  UNL16       0.0241
    127 H          12.7785    0.7392    9.7094 H      16  UNL16       0.0241
    128 H          12.9537    0.4674    7.9643 H      16  UNL16       0.0241
    129 CL         12.9195    3.6792   18.0605 Cl     17  UNL17      -0.1257
    130 C          13.7059    2.6101   16.8792 C.3    17  UNL17       0.0198
    131 C          13.5174    1.1591   17.2687 C.3    17  UNL17      -0.0517
    132 H          13.2655    2.8092   15.8982 H      17  UNL17       0.0427
    133 H          14.7681    2.8682   16.8452 H      17  UNL17       0.0427
    134 H          14.0040    0.5060   16.5373 H      17  UNL17       0.0241
    135 H          13.9566    0.9516   18.2501 H      17  UNL17       0.0241
    136 H          12.4559    0.8927   17.3043 H      17  UNL17       0.0241
    137 CL         16.8733    0.4748   20.5870 Cl     18  UNL18      -0.1257
    138 C          15.4829    1.2917   21.3329 C.3    18  UNL18       0.0198
    139 C          14.2655    0.3917   21.3135 C.3    18  UNL18      -0.0517
    140 H          15.7560    1.5535   22.3591 H      18  UNL18       0.0427
    141 H          15.2937    2.2130   20.7750 H      18  UNL18       0.0427
    142 H          13.4128    0.9006   21.7742 H      18  UNL18       0.0241
    143 H          13.9853    0.1256   20.2889 H      18  UNL18       0.0241
    144 H          14.4470   -0.5331   21.8710 H      18  UNL18       0.0241
    145 CL         19.2730   -0.6009    0.7466 Cl     19  UNL19      -0.1257
    146 C          20.4911    0.6925    0.7430 C.3    19  UNL19       0.0198
    147 C          19.8227    2.0511    0.7461 C.3    19  UNL19      -0.0517
    148 H          21.1195    0.5668    1.6293 H      19  UNL19       0.0427
    149 H          21.1131    0.5678   -0.1478 H      19  UNL19       0.0427
    150 H          20.5783    2.8432    0.7439 H      19  UNL19       0.0241
    151 H          19.1921    2.1848   -0.1389 H      19  UNL19       0.0241
    152 H          19.1984    2.1838    1.6359 H      19  UNL19       0.0241
    153 CL         18.6090    0.7022    6.2771 Cl     20  UNL20      -0.1257
    154 C          19.5004    1.8866    5.2976 C.3    20  UNL20       0.0198
    155 C          20.9447    1.4618    5.1358 C.3    20  UNL20      -0.0517
    156 H          19.0061    1.9605    4.3249 H      20  UNL20       0.0427
    157 H          19.4347    2.8565    5.7985 H      20  UNL20       0.0427
    158 H          21.4881    2.1954    4.5316 H      20  UNL20       0.0241
    159 H          21.4469    1.3862    6.1058 H      20  UNL20       0.0241
    160 H          21.0188    0.4913    4.6341 H      20  UNL20       0.0241
    161 CL         20.5114    2.7335    8.4344 Cl     21  UNL21      -0.1257
    162 C          21.3942    1.3130    9.0338 C.3    21  UNL21       0.0198
    163 C          20.5692    0.5712   10.0642 C.3    21  UNL21      -0.0517
    164 H          21.6178    0.6690    8.1786 H      21  UNL21       0.0427
    165 H          22.3366    1.6594    9.4672 H      21  UNL21       0.0427
    166 H          21.1185   -0.3025   10.4293 H      21  UNL21       0.0241
    167 H          20.3417    1.2095   10.9243 H      21  UNL21       0.0241
    168 H          19.6239    0.2203    9.6374 H      21  UNL21       0.0241
    169 CL         20.8538    0.8858   17.3105 Cl     22  UNL22      -0.1257
    170 C          19.3038    1.0431   16.4564 C.3    22  UNL22       0.0198
    171 C          18.1495    0.7619   17.3953 C.3    22  UNL22      -0.0517
    172 H          19.2404    2.0591   16.0565 H      22  UNL22       0.0427
    173 H          19.3055    0.3374   15.6211 H      22  UNL22       0.0427
    174 H          17.1980    0.8605   16.8632 H      22  UNL22       0.0241
    175 H          18.2057   -0.2541   17.7995 H      22  UNL22       0.0241
    176 H          18.1405    1.4653   18.2344 H      22  UNL22       0.0241
    177 CL         20.6579   -0.1906   20.6015 Cl     23  UNL23      -0.1257
    178 C          21.3091    1.4613   20.6660 C.3    23  UNL23       0.0198
    179 C          20.2044    2.4757   20.4580 C.3    23  UNL23      -0.0517
    180 H          21.7841    1.5989   21.6415 H      23  UNL23       0.0427
    181 H          22.0725    1.5537   19.8885 H      23  UNL23       0.0427
    182 H          20.6120    3.4909   20.4989 H      23  UNL23       0.0241
    183 H          19.7242    2.3447   19.4828 H      23  UNL23       0.0241
    184 H          19.4361    2.3899   21.2334 H      23  UNL23       0.0241
    185 CL         17.8670    1.2848   25.3563 Cl     24  UNL24      -0.1257
    186 C          19.4405    2.1020   25.2426 C.3    24  UNL24       0.0198
    187 C          20.5545    1.0889   25.0831 C.3    24  UNL24      -0.0517
    188 H          19.4072    2.7807   24.3857 H      24  UNL24       0.0427
    189 H          19.5804    2.6929   26.1521 H      24  UNL24       0.0427
    190 H          21.5207    1.5986   25.0137 H      24  UNL24       0.0241
    191 H          20.5947    0.4059   25.9379 H      24  UNL24       0.0241
    192 H          20.4217    0.4936   24.1737 H      24  UNL24       0.0241
    193 CL         25.6583    3.1694    0.7467 Cl     25  UNL25      -0.1257
    194 C          25.9696    1.4205    0.7793 C.3    25  UNL25       0.0198
    195 C          27.4587    1.1464    0.7797 C.3    25  UNL25      -0.0517
    196 H          25.4990    1.0106    1.6774 H      25  UNL25       0.0427
    197 H          25.4933    0.9765   -0.0993 H      25  UNL25       0.0427
    198 H          27.6436    0.0676    0.7998 H      25  UNL25       0.0241
    199 H          27.9371    1.5534   -0.1172 H      25  UNL25       0.0241
    200 H          27.9428    1.5874    1.6573 H      25  UNL25       0.0241
    201 CL         28.4806    3.2233    5.2864 Cl     26  UNL26      -0.1257
    202 C          27.7905    1.5881    5.3685 C.3    26  UNL26       0.0198
    203 C          26.2830    1.6539    5.4935 C.3    26  UNL26      -0.0517
    204 H          28.0819    1.0528    4.4604 H      26  UNL26       0.0427
    205 H          28.2298    1.0793    6.2312 H      26  UNL26       0.0427
    206 H          25.8642    0.6437    5.5436 H      26  UNL26       0.0241
    207 H          25.9832    2.1880    6.4011 H      26  UNL26       0.0241
    208 H          25.8355    2.1615    4.6327 H      26  UNL26       0.0241
    209 CL         25.1193    2.0781    9.9180 Cl     27  UNL27      -0.1257
    210 C          26.1611    0.7337    9.4041 C.3    27  UNL27       0.0198
    211 C          27.5019    1.2529    8.9293 C.3    27  UNL27      -0.0517
    212 H          26.2855    0.0586   10.2554 H      27  UNL27       0.0427
    213 H          25.6471    0.1958    8.6026 H      27  UNL27       0.0427
    214 H          28.1387    0.4201    8.6142 H      27  UNL27       0.0241
    215 H          27.3857    1.9294    8.0762 H      27  UNL27       0.0241
    216 H          28.0233    1.7924    9.7268 H      27  UNL27       0.0241
    217 CL         25.8050    1.4699   13.7708 Cl     28  UNL28      -0.1257
    218 C          24.2637    0.5861   13.7772 C.3    28  UNL28       0.0198
    219 C          23.0979    1.5523   13.7821 C.3    28  UNL28      -0.0517
    220 H          24.2363   -0.0511   12.8887 H      28  UNL28       0.0427
    221 H          24.2437   -0.0511   14.6658 H      28  UNL28       0.0427
    222 H          22.1518    1.0016   13.7860 H      28  UNL28       0.0241
    223 H          23.1180    2.1935   14.6694 H      28  UNL28       0.0241
    224 H          23.1106    2.1935   12.8946 H      28  UNL28       0.0241
    225 CL         27.3433    1.5620   17.1299 Cl     29  UNL29      -0.1257
    226 C          25.8032    0.6761   17.1274 C.3    29  UNL29       0.0198
    227 C          24.6361    1.6406   17.1302 C.3    29  UNL29      -0.0517
    228 H          25.7804    0.0414   16.2371 H      29  UNL29       0.0427
    229 H          25.7804    0.0364   18.0142 H      29  UNL29       0.0427
    230 H          23.6907    1.0887   17.1286 H      29  UNL29       0.0241
    231 H          24.6516    2.2794   18.0193 H      29  UNL29       0.0241
    232 H          24.6516    2.2844   16.2446 H      29  UNL29       0.0241
    233 CL         25.3365    1.2128   20.5718 Cl     30  UNL30      -0.1257
    234 C          27.0666    0.8097   20.5375 C.3    30  UNL30       0.0198
    235 C          27.9058    2.0695   20.5753 C.3    30  UNL30      -0.0517
    236 H          27.2821    0.1735   21.4006 H      30  UNL30       0.0427
    237 H          27.2624    0.2400   19.6248 H      30  UNL30       0.0427
    238 H          28.9701    1.8143   20.5540 H      30  UNL30       0.0241
    239 H          27.6961    2.7117   19.7136 H      30  UNL30       0.0241
    240 H          27.7158    2.6453   21.4871 H      30  UNL30       0.0241
    241 CL         26.3646    2.2045   25.2444 Cl     31  UNL31      -0.1257
    242 C          27.5147    0.8505   25.2695 C.3    31  UNL31       0.0198
    243 C          26.7780   -0.4721   25.2420 C.3    31  UNL31      -0.0517
    244 H          28.1700    0.9481   24.3994 H      31  UNL31       0.0427
    245 H          28.1203    0.9388   26.1758 H      31  UNL31       0.0427
    246 H          27.4920   -1.3019   25.2577 H      31  UNL31       0.0241
    247 H          26.1200   -0.5777   26.1108 H      31  UNL31       0.0241
    248 H          26.1697   -0.5684   24.3367 H      31  UNL31       0.0241
@<TRIPOS>BOND
     1     1     2    1
     2     2     3    1
     3     2     4    1
     4     2     5    1
     5     3     6    1
     6     3     7    1
     7     3     8    1
     8     9    10    1
     9    10    11    1
    10    10    12    1
    11    10    13    1
    12    11    14    1
    13    11    15    1
    14    11    16    1
    15    17    18    1
    16    18    19    1
    17    18    20    1
    18    18    21    1
    19    19    22    1
    20    19    23    1
    21    19    24    1
    22    25    26    1
    23    26    27    1
    24    26    28    1
    25    26    29    1
    26    27    30    1
    27    27    31    1
    28    27    32    1
    29    33    34    1
    30    34    35    1
    31    34    36    1
    32    34    37    1
    33    35    38    1
    34    35    39    1
    35    35    40    1
    36    41    42    1
    37    42    43    1
    38    42    44    1
    39    42    45    1
    40    43    46    1
    41    43    47    1
    42    43    48    1
    43    49    50    1
    44    50    51    1
    45    50    52    1
    46    50    53    1
    47    51    54    1
    48    51    55    1
    49    51    56    1
    50    57    58    1
    51    58    59    1
    52    58    60    1
    53    58    61    1
    54    59    62    1
    55    59    63    1
    56    59    64    1
    57    65    66    1
    58    66    67    1
    59    66    68    1
    60    66    69    1
    61    67    70    1
    62    67    71    1
    63    67    72    1
    64    73    74    1
    65    74    75    1
    66    74    76    1
    67    74    77    1
    68    75    78    1
    69    75    79    1
    70    75    80    1
    71    81    82    1
    72    82    83    1
    73    82    84    1
    74    82    85    1
    75    83    86    1
    76    83    87    1
    77    83    88    1
    78    89    90    1
    79    90    91    1
    80    90    92    1
    81    90    93    1
    82    91    94    1
    83    91    95    1
    84    91    96    1
    85    97    98    1
    86    98    99    1
    87    98   100    1
    88    98   101    1
    89    99   102    1
    90    99   103    1
    91    99   104    1
    92   105   106    1
    93   106   107    1
    94   106   108    1
    95   106   109    1
    96   107   110    1
    97   107   111    1
    98   107   112    1
    99   113   114    1
   100   114   115    1
   101   114   116    1
   102   114   117    1
   103   115   118    1
   104   115   119    1
   105   115   120    1
   106   121   122    1
   107   122   123    1
   108   122   124    1
   109   122   125    1
   110   123   126    1
   111   123   127    1
   112   123   128    1
   113   129   130    1
   114   130   131    1
   115   130   132    1
   116   130   133    1
   117   131   134    1
   118   131   135    1
   119   131   136    1
   120   137   138    1
   121   138   139    1
   122   138   140    1
   123   138   141    1
   124   139   142    1
   125   139   143    1
   126   139   144    1
   127   145   146    1
   128   146   147    1
   129   146   148    1
   130   146   149    1
   131   147   150    1
   132   147   151    1
   133   147   152    1
   134   153   154    1
   135   154   155    1
   136   154   156    1
   137   154   157    1
   138   155   158    1
   139   155   159    1
   140   155   160    1
   141   161   162    1
   142   162   163    1
   143   162   164    1
   144   162   165    1
   145   163   166    1
   146   163   167    1
   147   163   168    1
   148   169   170    1
   149   170   171    1
   150   170   172    1
   151   170   173    1
   152   171   174    1
   153   171   175    1
   154   171   176    1
   155   177   178    1
   156   178   179    1
   157   178   180    1
   158   178   181    1
   159   179   182    1
   160   179   183    1
   161   179   184    1
   162   185   186    1
   163   186   187    1
   164   186   188    1
   165   186   189    1
   166   187   190    1
   167   187   191    1
   168   187   192    1
   169   193   194    1
   170   194   195    1
   171   194   196    1
   172   194   197    1
   173   195   198    1
   174   195   199    1
   175   195   200    1
   176   201   202    1
   177   202   203    1
   178   202   204    1
   179   202   205    1
   180   203   206    1
   181   203   207    1
   182   203   208    1
   183   209   210    1
   184   210   211    1
   185   210   212    1
   186   210   213    1
   187   211   214    1
   188   211   215    1
   189   211   216    1
   190   217   218    1
   191   218   219    1
   192   218   220    1
   193   218   221    1
   194   219   222    1
   195   219   223    1
   196   219   224    1
   197   225   226    1
   198   226   227    1
   199   226   228    1
   200   226   229    1
   201   227   230    1
   202   227   231    1
   203   227   232    1
   204   233   234    1
   205   234   235    1
   206   234   236    1
   207   234   237    1
   208   235   238    1
   209   235   239    1
   210   235   240    1
   211   241   242    1
   212   242   243    1
   213   242   244    1
   214   242   245    1
   215   243   246    1
   216   243   247    1
   217   243   248    1
