@<TRIPOS>MOLECULE
*****
 2072 1813 0 0 0
SMALL
GASTEIGER

@<TRIPOS>ATOM
      1 CL         -1.9361    2.9325    0.6065 Cl      1  UNL1       -0.1257
      2 C          -0.4567    1.9486    0.6065 C.3     1  UNL1        0.0198
      3 C          -0.8002    0.4739    0.6065 C.3     1  UNL1       -0.0517
      4 H           0.1238    2.2121   -0.2821 H       1  UNL1        0.0427
      5 H           0.1238    2.2121    1.4950 H       1  UNL1        0.0427
      6 H           0.1152   -0.1265    0.6065 H       1  UNL1        0.0241
      7 H          -1.3812    0.2021    1.4939 H       1  UNL1        0.0241
      8 H          -1.3812    0.2021   -0.2809 H       1  UNL1        0.0241
      9 CL         -3.1379    0.9979    4.9232 Cl      2  UNL2       -0.1257
     10 C          -2.0574    1.3930    3.5694 C.3     2  UNL2        0.0198
     11 C          -0.6398    0.9594    3.8778 C.3     2  UNL2       -0.0517
     12 H          -2.4338    0.8841    2.6775 H       2  UNL2        0.0427
     13 H          -2.1056    2.4728    3.4030 H       2  UNL2        0.0427
     14 H           0.0206    1.2055    3.0401 H       2  UNL2        0.0241
     15 H          -0.2554    1.4654    4.7695 H       2  UNL2        0.0241
     16 H          -0.5832   -0.1213    4.0449 H       2  UNL2        0.0241
     17 CL          1.5531    1.6123    6.9699 Cl      3  UNL3       -0.1257
     18 C           0.0106    0.7306    6.9699 C.3     3  UNL3        0.0198
     19 C          -1.1539    1.6984    6.9699 C.3     3  UNL3       -0.0517
     20 H          -0.0140    0.0935    6.0813 H       3  UNL3        0.0427
     21 H          -0.0140    0.0935    7.8584 H       3  UNL3        0.0427
     22 H          -2.1008    1.1491    6.9699 H       3  UNL3        0.0241
     23 H          -1.1366    2.3396    7.8573 H       3  UNL3        0.0241
     24 H          -1.1366    2.3396    6.0825 H       3  UNL3        0.0241
     25 CL         -1.9361    2.9325   10.1515 Cl      4  UNL4       -0.1257
     26 C          -0.4567    1.9486   10.1515 C.3     4  UNL4        0.0198
     27 C          -0.8002    0.4739   10.1515 C.3     4  UNL4       -0.0517
     28 H           0.1238    2.2121    9.2629 H       4  UNL4        0.0427
     29 H           0.1238    2.2121   11.0400 H       4  UNL4        0.0427
     30 H           0.1152   -0.1265   10.1515 H       4  UNL4        0.0241
     31 H          -1.3812    0.2021   11.0389 H       4  UNL4        0.0241
     32 H          -1.3812    0.2021    9.2641 H       4  UNL4        0.0241
     33 CL          1.5531    1.6123   13.3332 Cl      5  UNL5       -0.1257
     34 C           0.0106    0.7306   13.3332 C.3     5  UNL5        0.0198
     35 C          -1.1539    1.6984   13.3332 C.3     5  UNL5       -0.0517
     36 H          -0.0140    0.0935   12.4446 H       5  UNL5        0.0427
     37 H          -0.0140    0.0935   14.2217 H       5  UNL5        0.0427
     38 H          -2.1008    1.1491   13.3332 H       5  UNL5        0.0241
     39 H          -1.1366    2.3396   14.2206 H       5  UNL5        0.0241
     40 H          -1.1366    2.3396   12.4458 H       5  UNL5        0.0241
     41 CL          1.5531    1.6123   16.5149 Cl      6  UNL6       -0.1257
     42 C           0.0106    0.7306   16.5149 C.3     6  UNL6        0.0198
     43 C          -1.1539    1.6984   16.5149 C.3     6  UNL6       -0.0517
     44 H          -0.0140    0.0935   15.6263 H       6  UNL6        0.0427
     45 H          -0.0140    0.0935   17.4034 H       6  UNL6        0.0427
     46 H          -2.1008    1.1491   16.5149 H       6  UNL6        0.0241
     47 H          -1.1366    2.3396   17.4023 H       6  UNL6        0.0241
     48 H          -1.1366    2.3396   15.6275 H       6  UNL6        0.0241
     49 CL         -2.6164    0.7397   19.6966 Cl      7  UNL7       -0.1257
     50 C          -1.1490    1.7413   19.6966 C.3     7  UNL7        0.0198
     51 C           0.0889    0.8693   19.6966 C.3     7  UNL7       -0.0517
     52 H          -1.1751    2.3784   18.8080 H       7  UNL7        0.0427
     53 H          -1.1751    2.3784   20.5851 H       7  UNL7        0.0427
     54 H           0.9890    1.4922   19.6966 H       7  UNL7        0.0241
     55 H           0.1226    0.2287   20.5840 H       7  UNL7        0.0241
     56 H           0.1226    0.2287   18.8092 H       7  UNL7        0.0241
     57 CL          1.4531    1.6123   22.8783 Cl      8  UNL8       -0.1257
     58 C          -0.0894    0.7306   22.8783 C.3     8  UNL8        0.0198
     59 C          -1.2539    1.6984   22.8783 C.3     8  UNL8       -0.0517
     60 H          -0.1140    0.0935   21.9897 H       8  UNL8        0.0427
     61 H          -0.1140    0.0935   23.7668 H       8  UNL8        0.0427
     62 H          -2.2008    1.1491   22.8783 H       8  UNL8        0.0241
     63 H          -1.2366    2.3396   23.7657 H       8  UNL8        0.0241
     64 H          -1.2366    2.3396   21.9909 H       8  UNL8        0.0241
     65 CL          1.4531    5.1692    0.6065 Cl      9  UNL9       -0.1257
     66 C          -0.0894    4.2875    0.6065 C.3     9  UNL9        0.0198
     67 C          -1.2539    5.2553    0.6065 C.3     9  UNL9       -0.0517
     68 H          -0.1140    3.6504   -0.2821 H       9  UNL9        0.0427
     69 H          -0.1140    3.6504    1.4950 H       9  UNL9        0.0427
     70 H          -2.2008    4.7060    0.6065 H       9  UNL9        0.0241
     71 H          -1.2366    5.8965    1.4939 H       9  UNL9        0.0241
     72 H          -1.2366    5.8965   -0.2809 H       9  UNL9        0.0241
     73 CL         -1.9361    6.4894    3.7882 Cl     10  UNL10      -0.1257
     74 C          -0.4567    5.5055    3.7882 C.3    10  UNL10       0.0198
     75 C          -0.8002    4.0308    3.7882 C.3    10  UNL10      -0.0517
     76 H           0.1238    5.7690    2.8996 H      10  UNL10       0.0427
     77 H           0.1238    5.7690    4.6767 H      10  UNL10       0.0427
     78 H           0.1152    3.4304    3.7882 H      10  UNL10       0.0241
     79 H          -1.3812    3.7589    4.6756 H      10  UNL10       0.0241
     80 H          -1.3812    3.7589    2.9008 H      10  UNL10       0.0241
     81 CL          1.0258    6.1168    6.9699 Cl     11  UNL11      -0.1257
     82 C           0.1015    4.5994    6.9699 C.3    11  UNL11       0.0198
     83 C          -1.3857    4.8838    6.9699 C.3    11  UNL11      -0.0517
     84 H           0.3879    4.0298    6.0813 H      11  UNL11       0.0427
     85 H           0.3879    4.0298    7.8584 H      11  UNL11       0.0427
     86 H          -1.9491    3.9453    6.9699 H      11  UNL11       0.0241
     87 H          -1.6804    5.4535    7.8573 H      11  UNL11       0.0241
     88 H          -1.6804    5.4535    6.0825 H      11  UNL11       0.0241
     89 CL          1.4531    5.1692   10.1515 Cl     12  UNL12      -0.1257
     90 C          -0.0894    4.2875   10.1515 C.3    12  UNL12       0.0198
     91 C          -1.2539    5.2553   10.1515 C.3    12  UNL12      -0.0517
     92 H          -0.1140    3.6504    9.2629 H      12  UNL12       0.0427
     93 H          -0.1140    3.6504   11.0400 H      12  UNL12       0.0427
     94 H          -2.2008    4.7060   10.1515 H      12  UNL12       0.0241
     95 H          -1.2366    5.8965   11.0389 H      12  UNL12       0.0241
     96 H          -1.2366    5.8965    9.2641 H      12  UNL12       0.0241
     97 CL         -1.9361    6.4894   13.3332 Cl     13  UNL13      -0.1257
     98 C          -0.4567    5.5055   13.3332 C.3    13  UNL13       0.0198
     99 C          -0.8002    4.0308   13.3332 C.3    13  UNL13      -0.0517
    100 H           0.1238    5.7690   12.4446 H      13  UNL13       0.0427
    101 H           0.1238    5.7690   14.2217 H      13  UNL13       0.0427
    102 H           0.1152    3.4304   13.3332 H      13  UNL13       0.0241
    103 H          -1.3812    3.7589   14.2206 H      13  UNL13       0.0241
    104 H          -1.3812    3.7589   12.4458 H      13  UNL13       0.0241
    105 CL          1.0258    6.1168   16.5149 Cl     14  UNL14      -0.1257
    106 C           0.1015    4.5994   16.5149 C.3    14  UNL14       0.0198
    107 C          -1.3857    4.8838   16.5149 C.3    14  UNL14      -0.0517
    108 H           0.3879    4.0298   15.6263 H      14  UNL14       0.0427
    109 H           0.3879    4.0298   17.4034 H      14  UNL14       0.0427
    110 H          -1.9491    3.9453   16.5149 H      14  UNL14       0.0241
    111 H          -1.6804    5.4535   17.4023 H      14  UNL14       0.0241
    112 H          -1.6804    5.4535   15.6275 H      14  UNL14       0.0241
    113 CL          1.5531    5.1692   19.6966 Cl     15  UNL15      -0.1257
    114 C           0.0106    4.2875   19.6966 C.3    15  UNL15       0.0198
    115 C          -1.1539    5.2553   19.6966 C.3    15  UNL15      -0.0517
    116 H          -0.0140    3.6504   18.8080 H      15  UNL15       0.0427
    117 H          -0.0140    3.6504   20.5851 H      15  UNL15       0.0427
    118 H          -2.1008    4.7060   19.6966 H      15  UNL15       0.0241
    119 H          -1.1366    5.8965   20.5840 H      15  UNL15       0.0241
    120 H          -1.1366    5.8965   18.8092 H      15  UNL15       0.0241
    121 CL          1.0258    6.1168   22.8783 Cl     16  UNL16      -0.1257
    122 C           0.1015    4.5994   22.8783 C.3    16  UNL16       0.0198
    123 C          -1.3857    4.8838   22.8783 C.3    16  UNL16      -0.0517
    124 H           0.3879    4.0298   21.9897 H      16  UNL16       0.0427
    125 H           0.3879    4.0298   23.7668 H      16  UNL16       0.0427
    126 H          -1.9491    3.9453   22.8783 H      16  UNL16       0.0241
    127 H          -1.6804    5.4535   23.7657 H      16  UNL16       0.0241
    128 H          -1.6804    5.4535   21.9909 H      16  UNL16       0.0241
    129 CL         -1.5426    2.9573   26.0599 Cl     17  UNL17      -0.1257
    130 C          -1.3258    4.7208   26.0599 C.3    17  UNL17       0.0198
    131 C           0.1464    5.0745   26.0599 C.3    17  UNL17      -0.0517
    132 H          -1.8215    5.1217   25.1713 H      17  UNL17       0.0427
    133 H          -1.8215    5.1217   26.9484 H      17  UNL17       0.0427
    134 H           0.2730    6.1619   26.0599 H      17  UNL17       0.0241
    135 H           0.6498    4.6769   26.9473 H      17  UNL17       0.0241
    136 H           0.6498    4.6769   25.1725 H      17  UNL17       0.0241
    137 CL         -1.9361   10.0463    0.6065 Cl     18  UNL18      -0.1257
    138 C          -0.4567    9.0624    0.6065 C.3    18  UNL18       0.0198
    139 C          -0.8002    7.5877    0.6065 C.3    18  UNL18      -0.0517
    140 H           0.1238    9.3258   -0.2821 H      18  UNL18       0.0427
    141 H           0.1238    9.3258    1.4950 H      18  UNL18       0.0427
    142 H           0.1152    6.9873    0.6065 H      18  UNL18       0.0241
    143 H          -1.3812    7.3158    1.4939 H      18  UNL18       0.0241
    144 H          -1.3812    7.3158   -0.2809 H      18  UNL18       0.0241
    145 CL          1.4531    8.7261    3.7882 Cl     19  UNL19      -0.1257
    146 C          -0.0894    7.8444    3.7882 C.3    19  UNL19       0.0198
    147 C          -1.2539    8.8122    3.7882 C.3    19  UNL19      -0.0517
    148 H          -0.1140    7.2073    2.8996 H      19  UNL19       0.0427
    149 H          -0.1140    7.2073    4.6767 H      19  UNL19       0.0427
    150 H          -2.2008    8.2629    3.7882 H      19  UNL19       0.0241
    151 H          -1.2366    9.4534    4.6756 H      19  UNL19       0.0241
    152 H          -1.2366    9.4534    2.9008 H      19  UNL19       0.0241
    153 CL          1.4531    8.7261    6.9699 Cl     20  UNL20      -0.1257
    154 C          -0.0894    7.8444    6.9699 C.3    20  UNL20       0.0198
    155 C          -1.2539    8.8122    6.9699 C.3    20  UNL20      -0.0517
    156 H          -0.1140    7.2073    6.0813 H      20  UNL20       0.0427
    157 H          -0.1140    7.2073    7.8584 H      20  UNL20       0.0427
    158 H          -2.2008    8.2629    6.9699 H      20  UNL20       0.0241
    159 H          -1.2366    9.4534    7.8573 H      20  UNL20       0.0241
    160 H          -1.2366    9.4534    6.0825 H      20  UNL20       0.0241
    161 CL          1.4531    8.7261   13.3332 Cl     21  UNL21      -0.1257
    162 C          -0.0894    7.8444   13.3332 C.3    21  UNL21       0.0198
    163 C          -1.2539    8.8122   13.3332 C.3    21  UNL21      -0.0517
    164 H          -0.1140    7.2073   12.4446 H      21  UNL21       0.0427
    165 H          -0.1140    7.2073   14.2217 H      21  UNL21       0.0427
    166 H          -2.2008    8.2629   13.3332 H      21  UNL21       0.0241
    167 H          -1.2366    9.4534   14.2206 H      21  UNL21       0.0241
    168 H          -1.2366    9.4534   12.4458 H      21  UNL21       0.0241
    169 CL          1.5531    8.7261   16.5149 Cl     22  UNL22      -0.1257
    170 C           0.0106    7.8444   16.5149 C.3    22  UNL22       0.0198
    171 C          -1.1539    8.8122   16.5149 C.3    22  UNL22      -0.0517
    172 H          -0.0140    7.2073   15.6263 H      22  UNL22       0.0427
    173 H          -0.0140    7.2073   17.4034 H      22  UNL22       0.0427
    174 H          -2.1008    8.2629   16.5149 H      22  UNL22       0.0241
    175 H          -1.1366    9.4534   17.4023 H      22  UNL22       0.0241
    176 H          -1.1366    9.4534   15.6275 H      22  UNL22       0.0241
    177 CL          1.0258    9.6737   19.6966 Cl     23  UNL23      -0.1257
    178 C           0.1015    8.1563   19.6966 C.3    23  UNL23       0.0198
    179 C          -1.3857    8.4407   19.6966 C.3    23  UNL23      -0.0517
    180 H           0.3879    7.5866   18.8080 H      23  UNL23       0.0427
    181 H           0.3879    7.5866   20.5851 H      23  UNL23       0.0427
    182 H          -1.9491    7.5022   19.6966 H      23  UNL23       0.0241
    183 H          -1.6804    9.0104   20.5840 H      23  UNL23       0.0241
    184 H          -1.6804    9.0104   18.8092 H      23  UNL23       0.0241
    185 CL          1.4531    8.7261   22.8783 Cl     24  UNL24      -0.1257
    186 C          -0.0894    7.8444   22.8783 C.3    24  UNL24       0.0198
    187 C          -1.2539    8.8122   22.8783 C.3    24  UNL24      -0.0517
    188 H          -0.1140    7.2073   21.9897 H      24  UNL24       0.0427
    189 H          -0.1140    7.2073   23.7668 H      24  UNL24       0.0427
    190 H          -2.2008    8.2629   22.8783 H      24  UNL24       0.0241
    191 H          -1.2366    9.4534   23.7657 H      24  UNL24       0.0241
    192 H          -1.2366    9.4534   21.9909 H      24  UNL24       0.0241
    193 CL          1.4531    8.7261   26.0599 Cl     25  UNL25      -0.1257
    194 C          -0.0894    7.8444   26.0599 C.3    25  UNL25       0.0198
    195 C          -1.2539    8.8122   26.0599 C.3    25  UNL25      -0.0517
    196 H          -0.1140    7.2073   25.1713 H      25  UNL25       0.0427
    197 H          -0.1140    7.2073   26.9484 H      25  UNL25       0.0427
    198 H          -2.2008    8.2629   26.0599 H      25  UNL25       0.0241
    199 H          -1.2366    9.4534   26.9473 H      25  UNL25       0.0241
    200 H          -1.2366    9.4534   25.1725 H      25  UNL25       0.0241
    201 CL          1.3531   12.2830    0.6065 Cl     26  UNL26      -0.1257
    202 C          -0.1894   11.4013    0.6065 C.3    26  UNL26       0.0198
    203 C          -1.3539   12.3691    0.6065 C.3    26  UNL26      -0.0517
    204 H          -0.2140   10.7642   -0.2821 H      26  UNL26       0.0427
    205 H          -0.2140   10.7642    1.4950 H      26  UNL26       0.0427
    206 H          -2.3008   11.8198    0.6065 H      26  UNL26       0.0241
    207 H          -1.3366   13.0103    1.4939 H      26  UNL26       0.0241
    208 H          -1.3366   13.0103   -0.2809 H      26  UNL26       0.0241
    209 CL          0.9258   13.2305    3.7882 Cl     27  UNL27      -0.1257
    210 C           0.0015   11.7131    3.7882 C.3    27  UNL27       0.0198
    211 C          -1.4857   11.9976    3.7882 C.3    27  UNL27      -0.0517
    212 H           0.2879   11.1435    2.8996 H      27  UNL27       0.0427
    213 H           0.2879   11.1435    4.6767 H      27  UNL27       0.0427
    214 H          -2.0491   11.0590    3.7882 H      27  UNL27       0.0241
    215 H          -1.7804   12.5673    4.6756 H      27  UNL27       0.0241
    216 H          -1.7804   12.5673    2.9008 H      27  UNL27       0.0241
    217 CL          1.5531   12.2830   10.1515 Cl     28  UNL28      -0.1257
    218 C           0.0106   11.4013   10.1515 C.3    28  UNL28       0.0198
    219 C          -1.1539   12.3691   10.1515 C.3    28  UNL28      -0.0517
    220 H          -0.0140   10.7642    9.2629 H      28  UNL28       0.0427
    221 H          -0.0140   10.7642   11.0400 H      28  UNL28       0.0427
    222 H          -2.1008   11.8198   10.1515 H      28  UNL28       0.0241
    223 H          -1.1366   13.0103   11.0389 H      28  UNL28       0.0241
    224 H          -1.1366   13.0103    9.2641 H      28  UNL28       0.0241
    225 CL          1.5531   12.2830   13.3332 Cl     29  UNL29      -0.1257
    226 C           0.0106   11.4013   13.3332 C.3    29  UNL29       0.0198
    227 C          -1.1539   12.3691   13.3332 C.3    29  UNL29      -0.0517
    228 H          -0.0140   10.7642   12.4446 H      29  UNL29       0.0427
    229 H          -0.0140   10.7642   14.2217 H      29  UNL29       0.0427
    230 H          -2.1008   11.8198   13.3332 H      29  UNL29       0.0241
    231 H          -1.1366   13.0103   14.2206 H      29  UNL29       0.0241
    232 H          -1.1366   13.0103   12.4458 H      29  UNL29       0.0241
    233 CL          1.0258   13.2305   16.5149 Cl     30  UNL30      -0.1257
    234 C           0.1015   11.7131   16.5149 C.3    30  UNL30       0.0198
    235 C          -1.3857   11.9976   16.5149 C.3    30  UNL30      -0.0517
    236 H           0.3879   11.1435   15.6263 H      30  UNL30       0.0427
    237 H           0.3879   11.1435   17.4034 H      30  UNL30       0.0427
    238 H          -1.9491   11.0590   16.5149 H      30  UNL30       0.0241
    239 H          -1.6804   12.5673   17.4023 H      30  UNL30       0.0241
    240 H          -1.6804   12.5673   15.6275 H      30  UNL30       0.0241
    241 CL          1.5531   12.2830   19.6966 Cl     31  UNL31      -0.1257
    242 C           0.0106   11.4013   19.6966 C.3    31  UNL31       0.0198
    243 C          -1.1539   12.3691   19.6966 C.3    31  UNL31      -0.0517
    244 H          -0.0140   10.7642   18.8080 H      31  UNL31       0.0427
    245 H          -0.0140   10.7642   20.5851 H      31  UNL31       0.0427
    246 H          -2.1008   11.8198   19.6966 H      31  UNL31       0.0241
    247 H          -1.1366   13.0103   20.5840 H      31  UNL31       0.0241
    248 H          -1.1366   13.0103   18.8092 H      31  UNL31       0.0241
    249 CL          1.4531   12.2830   26.0599 Cl     32  UNL32      -0.1257
    250 C          -0.0894   11.4013   26.0599 C.3    32  UNL32       0.0198
    251 C          -1.2539   12.3691   26.0599 C.3    32  UNL32      -0.0517
    252 H          -0.1140   10.7642   25.1713 H      32  UNL32       0.0427
    253 H          -0.1140   10.7642   26.9484 H      32  UNL32       0.0427
    254 H          -2.2008   11.8198   26.0599 H      32  UNL32       0.0241
    255 H          -1.2366   13.0103   26.9473 H      32  UNL32       0.0241
    256 H          -1.2366   13.0103   25.1725 H      32  UNL32       0.0241
    257 CL         -1.9361   17.1600    0.6065 Cl     33  UNL33      -0.1257
    258 C          -0.4567   16.1761    0.6065 C.3    33  UNL33       0.0198
    259 C          -0.8002   14.7014    0.6065 C.3    33  UNL33      -0.0517
    260 H           0.1238   16.4396   -0.2821 H      33  UNL33       0.0427
    261 H           0.1238   16.4396    1.4950 H      33  UNL33       0.0427
    262 H           0.1152   14.1010    0.6065 H      33  UNL33       0.0241
    263 H          -1.3812   14.4296    1.4939 H      33  UNL33       0.0241
    264 H          -1.3812   14.4296   -0.2809 H      33  UNL33       0.0241
    265 CL          1.4531   15.8398    3.7882 Cl     34  UNL34      -0.1257
    266 C          -0.0894   14.9581    3.7882 C.3    34  UNL34       0.0198
    267 C          -1.2539   15.9259    3.7882 C.3    34  UNL34      -0.0517
    268 H          -0.1140   14.3210    2.8996 H      34  UNL34       0.0427
    269 H          -0.1140   14.3210    4.6767 H      34  UNL34       0.0427
    270 H          -2.2008   15.3766    3.7882 H      34  UNL34       0.0241
    271 H          -1.2366   16.5671    4.6756 H      34  UNL34       0.0241
    272 H          -1.2366   16.5671    2.9008 H      34  UNL34       0.0241
    273 CL          1.4531   15.8398    6.9699 Cl     35  UNL35      -0.1257
    274 C          -0.0894   14.9581    6.9699 C.3    35  UNL35       0.0198
    275 C          -1.2539   15.9259    6.9699 C.3    35  UNL35      -0.0517
    276 H          -0.1140   14.3210    6.0813 H      35  UNL35       0.0427
    277 H          -0.1140   14.3210    7.8584 H      35  UNL35       0.0427
    278 H          -2.2008   15.3766    6.9699 H      35  UNL35       0.0241
    279 H          -1.2366   16.5671    7.8573 H      35  UNL35       0.0241
    280 H          -1.2366   16.5671    6.0825 H      35  UNL35       0.0241
    281 CL         -1.9361   17.1600   10.1515 Cl     36  UNL36      -0.1257
    282 C          -0.4567   16.1761   10.1515 C.3    36  UNL36       0.0198
    283 C          -0.8002   14.7014   10.1515 C.3    36  UNL36      -0.0517
    284 H           0.1238   16.4396    9.2629 H      36  UNL36       0.0427
    285 H           0.1238   16.4396   11.0400 H      36  UNL36       0.0427
    286 H           0.1152   14.1010   10.1515 H      36  UNL36       0.0241
    287 H          -1.3812   14.4296   11.0389 H      36  UNL36       0.0241
    288 H          -1.3812   14.4296    9.2641 H      36  UNL36       0.0241
    289 CL         -1.9361   17.1600   13.3332 Cl     37  UNL37      -0.1257
    290 C          -0.4567   16.1761   13.3332 C.3    37  UNL37       0.0198
    291 C          -0.8002   14.7014   13.3332 C.3    37  UNL37      -0.0517
    292 H           0.1238   16.4396   12.4446 H      37  UNL37       0.0427
    293 H           0.1238   16.4396   14.2217 H      37  UNL37       0.0427
    294 H           0.1152   14.1010   13.3332 H      37  UNL37       0.0241
    295 H          -1.3812   14.4296   14.2206 H      37  UNL37       0.0241
    296 H          -1.3812   14.4296   12.4458 H      37  UNL37       0.0241
    297 CL          1.4531   15.8398   16.5149 Cl     38  UNL38      -0.1257
    298 C          -0.0894   14.9581   16.5149 C.3    38  UNL38       0.0198
    299 C          -1.2539   15.9259   16.5149 C.3    38  UNL38      -0.0517
    300 H          -0.1140   14.3210   15.6263 H      38  UNL38       0.0427
    301 H          -0.1140   14.3210   17.4034 H      38  UNL38       0.0427
    302 H          -2.2008   15.3766   16.5149 H      38  UNL38       0.0241
    303 H          -1.2366   16.5671   17.4023 H      38  UNL38       0.0241
    304 H          -1.2366   16.5671   15.6275 H      38  UNL38       0.0241
    305 CL         -1.9361   17.1600   19.6966 Cl     39  UNL39      -0.1257
    306 C          -0.4567   16.1761   19.6966 C.3    39  UNL39       0.0198
    307 C          -0.8002   14.7014   19.6966 C.3    39  UNL39      -0.0517
    308 H           0.1238   16.4396   18.8080 H      39  UNL39       0.0427
    309 H           0.1238   16.4396   20.5851 H      39  UNL39       0.0427
    310 H           0.1152   14.1010   19.6966 H      39  UNL39       0.0241
    311 H          -1.3812   14.4296   20.5840 H      39  UNL39       0.0241
    312 H          -1.3812   14.4296   18.8092 H      39  UNL39       0.0241
    313 CL          1.4531   15.8398   22.8783 Cl     40  UNL40      -0.1257
    314 C          -0.0894   14.9581   22.8783 C.3    40  UNL40       0.0198
    315 C          -1.2539   15.9259   22.8783 C.3    40  UNL40      -0.0517
    316 H          -0.1140   14.3210   21.9897 H      40  UNL40       0.0427
    317 H          -0.1140   14.3210   23.7668 H      40  UNL40       0.0427
    318 H          -2.2008   15.3766   22.8783 H      40  UNL40       0.0241
    319 H          -1.2366   16.5671   23.7657 H      40  UNL40       0.0241
    320 H          -1.2366   16.5671   21.9909 H      40  UNL40       0.0241
    321 CL          1.4531   19.3967    0.6065 Cl     41  UNL41      -0.1257
    322 C          -0.0894   18.5150    0.6065 C.3    41  UNL41       0.0198
    323 C          -1.2539   19.4828    0.6065 C.3    41  UNL41      -0.0517
    324 H          -0.1140   17.8779   -0.2821 H      41  UNL41       0.0427
    325 H          -0.1140   17.8779    1.4950 H      41  UNL41       0.0427
    326 H          -2.2008   18.9335    0.6065 H      41  UNL41       0.0241
    327 H          -1.2366   20.1240    1.4939 H      41  UNL41       0.0241
    328 H          -1.2366   20.1240   -0.2809 H      41  UNL41       0.0241
    329 CL         -1.9361   20.7169    3.7882 Cl     42  UNL42      -0.1257
    330 C          -0.4567   19.7330    3.7882 C.3    42  UNL42       0.0198
    331 C          -0.8002   18.2583    3.7882 C.3    42  UNL42      -0.0517
    332 H           0.1238   19.9965    2.8996 H      42  UNL42       0.0427
    333 H           0.1238   19.9965    4.6767 H      42  UNL42       0.0427
    334 H           0.1152   17.6579    3.7882 H      42  UNL42       0.0241
    335 H          -1.3812   17.9865    4.6756 H      42  UNL42       0.0241
    336 H          -1.3812   17.9865    2.9008 H      42  UNL42       0.0241
    337 CL          1.5531   19.3967   10.1515 Cl     43  UNL43      -0.1257
    338 C           0.0106   18.5150   10.1515 C.3    43  UNL43       0.0198
    339 C          -1.1539   19.4828   10.1515 C.3    43  UNL43      -0.0517
    340 H          -0.0140   17.8779    9.2629 H      43  UNL43       0.0427
    341 H          -0.0140   17.8779   11.0400 H      43  UNL43       0.0427
    342 H          -2.1008   18.9335   10.1515 H      43  UNL43       0.0241
    343 H          -1.1366   20.1240   11.0389 H      43  UNL43       0.0241
    344 H          -1.1366   20.1240    9.2641 H      43  UNL43       0.0241
    345 CL          1.5531   19.3967   13.3332 Cl     44  UNL44      -0.1257
    346 C           0.0106   18.5150   13.3332 C.3    44  UNL44       0.0198
    347 C          -1.1539   19.4828   13.3332 C.3    44  UNL44      -0.0517
    348 H          -0.0140   17.8779   12.4446 H      44  UNL44       0.0427
    349 H          -0.0140   17.8779   14.2217 H      44  UNL44       0.0427
    350 H          -2.1008   18.9335   13.3332 H      44  UNL44       0.0241
    351 H          -1.1366   20.1240   14.2206 H      44  UNL44       0.0241
    352 H          -1.1366   20.1240   12.4458 H      44  UNL44       0.0241
    353 CL          1.5531   19.3967   16.5149 Cl     45  UNL45      -0.1257
    354 C           0.0106   18.5150   16.5149 C.3    45  UNL45       0.0198
    355 C          -1.1539   19.4828   16.5149 C.3    45  UNL45      -0.0517
    356 H          -0.0140   17.8779   15.6263 H      45  UNL45       0.0427
    357 H          -0.0140   17.8779   17.4034 H      45  UNL45       0.0427
    358 H          -2.1008   18.9335   16.5149 H      45  UNL45       0.0241
    359 H          -1.1366   20.1240   17.4023 H      45  UNL45       0.0241
    360 H          -1.1366   20.1240   15.6275 H      45  UNL45       0.0241
    361 CL          1.4531   19.3967   19.6966 Cl     46  UNL46      -0.1257
    362 C          -0.0894   18.5150   19.6966 C.3    46  UNL46       0.0198
    363 C          -1.2539   19.4828   19.6966 C.3    46  UNL46      -0.0517
    364 H          -0.1140   17.8779   18.8080 H      46  UNL46       0.0427
    365 H          -0.1140   17.8779   20.5851 H      46  UNL46       0.0427
    366 H          -2.2008   18.9335   19.6966 H      46  UNL46       0.0241
    367 H          -1.2366   20.1240   20.5840 H      46  UNL46       0.0241
    368 H          -1.2366   20.1240   18.8092 H      46  UNL46       0.0241
    369 CL          1.4531   19.3967   26.0599 Cl     47  UNL47      -0.1257
    370 C          -0.0894   18.5150   26.0599 C.3    47  UNL47       0.0198
    371 C          -1.2539   19.4828   26.0599 C.3    47  UNL47      -0.0517
    372 H          -0.1140   17.8779   25.1713 H      47  UNL47       0.0427
    373 H          -0.1140   17.8779   26.9484 H      47  UNL47       0.0427
    374 H          -2.2008   18.9335   26.0599 H      47  UNL47       0.0241
    375 H          -1.2366   20.1240   26.9473 H      47  UNL47       0.0241
    376 H          -1.2366   20.1240   25.1725 H      47  UNL47       0.0241
    377 CL          4.6562    1.0445    0.3219 Cl     48  UNL48      -0.1257
    378 C           3.1137    1.5722    1.0283 C.3    48  UNL48       0.0198
    379 C           1.9492    0.9930    0.2529 C.3    48  UNL48      -0.0517
    380 H           3.0891    1.2416    2.0705 H      48  UNL48       0.0427
    381 H           3.0891    2.6653    1.0069 H      48  UNL48       0.0427
    382 H           1.0023    1.3217    0.6930 H      48  UNL48       0.0241
    383 H           1.9665    1.3202   -0.7919 H      48  UNL48       0.0241
    384 H           1.9665   -0.1017    0.2703 H      48  UNL48       0.0241
    385 CL          6.6562    1.6123    3.7882 Cl     49  UNL49      -0.1257
    386 C           5.1137    0.7306    3.7882 C.3    49  UNL49       0.0198
    387 C           3.9492    1.6984    3.7882 C.3    49  UNL49      -0.0517
    388 H           5.0891    0.0935    2.8996 H      49  UNL49       0.0427
    389 H           5.0891    0.0935    4.6767 H      49  UNL49       0.0427
    390 H           3.0023    1.1491    3.7882 H      49  UNL49       0.0241
    391 H           3.9665    2.3396    4.6756 H      49  UNL49       0.0241
    392 H           3.9665    2.3396    2.9008 H      49  UNL49       0.0241
    393 CL          6.6562    1.6123    6.9699 Cl     50  UNL50      -0.1257
    394 C           5.1137    0.7306    6.9699 C.3    50  UNL50       0.0198
    395 C           3.9492    1.6984    6.9699 C.3    50  UNL50      -0.0517
    396 H           5.0891    0.0935    6.0813 H      50  UNL50       0.0427
    397 H           5.0891    0.0935    7.8584 H      50  UNL50       0.0427
    398 H           3.0023    1.1491    6.9699 H      50  UNL50       0.0241
    399 H           3.9665    2.3396    7.8573 H      50  UNL50       0.0241
    400 H           3.9665    2.3396    6.0825 H      50  UNL50       0.0241
    401 CL          4.6562    1.0445    9.8669 Cl     51  UNL51      -0.1257
    402 C           3.1137    1.5722   10.5733 C.3    51  UNL51       0.0198
    403 C           1.9492    0.9930    9.7979 C.3    51  UNL51      -0.0517
    404 H           3.0891    1.2416   11.6155 H      51  UNL51       0.0427
    405 H           3.0891    2.6653   10.5520 H      51  UNL51       0.0427
    406 H           1.0023    1.3217   10.2380 H      51  UNL51       0.0241
    407 H           1.9665    1.3202    8.7532 H      51  UNL51       0.0241
    408 H           1.9665   -0.1017    9.8153 H      51  UNL51       0.0241
    409 CL          6.6562    1.6123   13.3332 Cl     52  UNL52      -0.1257
    410 C           5.1137    0.7306   13.3332 C.3    52  UNL52       0.0198
    411 C           3.9492    1.6984   13.3332 C.3    52  UNL52      -0.0517
    412 H           5.0891    0.0935   12.4446 H      52  UNL52       0.0427
    413 H           5.0891    0.0935   14.2217 H      52  UNL52       0.0427
    414 H           3.0023    1.1491   13.3332 H      52  UNL52       0.0241
    415 H           3.9665    2.3396   14.2206 H      52  UNL52       0.0241
    416 H           3.9665    2.3396   12.4458 H      52  UNL52       0.0241
    417 CL          6.1289    2.5599   16.5149 Cl     53  UNL53      -0.1257
    418 C           5.2047    1.0425   16.5149 C.3    53  UNL53       0.0198
    419 C           3.7175    1.3269   16.5149 C.3    53  UNL53      -0.0517
    420 H           5.4911    0.4729   15.6263 H      53  UNL53       0.0427
    421 H           5.4911    0.4729   17.4034 H      53  UNL53       0.0427
    422 H           3.1540    0.3884   16.5149 H      53  UNL53       0.0241
    423 H           3.4227    1.8966   17.4023 H      53  UNL53       0.0241
    424 H           3.4227    1.8966   15.6275 H      53  UNL53       0.0241
    425 CL          6.6562    1.6123   19.6966 Cl     54  UNL54      -0.1257
    426 C           5.1137    0.7306   19.6966 C.3    54  UNL54       0.0198
    427 C           3.9492    1.6984   19.6966 C.3    54  UNL54      -0.0517
    428 H           5.0891    0.0935   18.8080 H      54  UNL54       0.0427
    429 H           5.0891    0.0935   20.5851 H      54  UNL54       0.0427
    430 H           3.0023    1.1491   19.6966 H      54  UNL54       0.0241
    431 H           3.9665    2.3396   20.5840 H      54  UNL54       0.0241
    432 H           3.9665    2.3396   18.8092 H      54  UNL54       0.0241
    433 CL          6.1289    2.5599   22.8783 Cl     55  UNL55      -0.1257
    434 C           5.2047    1.0425   22.8783 C.3    55  UNL55       0.0198
    435 C           3.7175    1.3269   22.8783 C.3    55  UNL55      -0.0517
    436 H           5.4911    0.4729   21.9897 H      55  UNL55       0.0427
    437 H           5.4911    0.4729   23.7668 H      55  UNL55       0.0427
    438 H           3.1540    0.3884   22.8783 H      55  UNL55       0.0241
    439 H           3.4227    1.8966   23.7657 H      55  UNL55       0.0241
    440 H           3.4227    1.8966   21.9909 H      55  UNL55       0.0241
    441 CL          4.5562    1.3335   25.7130 Cl     56  UNL56      -0.1257
    442 C           3.0137    1.1439   26.5741 C.3    56  UNL56       0.0198
    443 C           1.8492    1.3520   25.6289 C.3    56  UNL56      -0.0517
    444 H           2.9891    0.1390   27.0051 H      56  UNL56       0.0427
    445 H           2.9891    1.8745   27.3874 H      56  UNL56       0.0427
    446 H           0.9023    1.2339   26.1654 H      56  UNL56       0.0241
    447 H           1.8665    2.3566   25.1936 H      56  UNL56       0.0241
    448 H           1.8665    0.6233   24.8119 H      56  UNL56       0.0241
    449 CL          6.6562    5.1692    0.6065 Cl     57  UNL57      -0.1257
    450 C           5.1137    4.2875    0.6065 C.3    57  UNL57       0.0198
    451 C           3.9492    5.2553    0.6065 C.3    57  UNL57      -0.0517
    452 H           5.0891    3.6504   -0.2821 H      57  UNL57       0.0427
    453 H           5.0891    3.6504    1.4950 H      57  UNL57       0.0427
    454 H           3.0023    4.7060    0.6065 H      57  UNL57       0.0241
    455 H           3.9665    5.8965    1.4939 H      57  UNL57       0.0241
    456 H           3.9665    5.8965   -0.2809 H      57  UNL57       0.0241
    457 CL          4.6562    4.6014    3.5036 Cl     58  UNL58      -0.1257
    458 C           3.1137    5.1291    4.2099 C.3    58  UNL58       0.0198
    459 C           1.9492    4.5499    3.4346 C.3    58  UNL58      -0.0517
    460 H           3.0891    4.7984    5.2521 H      58  UNL58       0.0427
    461 H           3.0891    6.2222    4.1886 H      58  UNL58       0.0427
    462 H           1.0023    4.8786    3.8747 H      58  UNL58       0.0241
    463 H           1.9665    4.8771    2.3898 H      58  UNL58       0.0241
    464 H           1.9665    3.4552    3.4520 H      58  UNL58       0.0241
    465 CL          6.6562    5.1692    6.9699 Cl     59  UNL59      -0.1257
    466 C           5.1137    4.2875    6.9699 C.3    59  UNL59       0.0198
    467 C           3.9492    5.2553    6.9699 C.3    59  UNL59      -0.0517
    468 H           5.0891    3.6504    6.0813 H      59  UNL59       0.0427
    469 H           5.0891    3.6504    7.8584 H      59  UNL59       0.0427
    470 H           3.0023    4.7060    6.9699 H      59  UNL59       0.0241
    471 H           3.9665    5.8965    7.8573 H      59  UNL59       0.0241
    472 H           3.9665    5.8965    6.0825 H      59  UNL59       0.0241
    473 CL          6.6562    5.1692   10.1515 Cl     60  UNL60      -0.1257
    474 C           5.1137    4.2875   10.1515 C.3    60  UNL60       0.0198
    475 C           3.9492    5.2553   10.1515 C.3    60  UNL60      -0.0517
    476 H           5.0891    3.6504    9.2629 H      60  UNL60       0.0427
    477 H           5.0891    3.6504   11.0400 H      60  UNL60       0.0427
    478 H           3.0023    4.7060   10.1515 H      60  UNL60       0.0241
    479 H           3.9665    5.8965   11.0389 H      60  UNL60       0.0241
    480 H           3.9665    5.8965    9.2641 H      60  UNL60       0.0241
    481 CL          4.6562    4.6014   13.0486 Cl     61  UNL61      -0.1257
    482 C           3.1137    5.1291   13.7550 C.3    61  UNL61       0.0198
    483 C           1.9492    4.5499   12.9796 C.3    61  UNL61      -0.0517
    484 H           3.0891    4.7984   14.7972 H      61  UNL61       0.0427
    485 H           3.0891    6.2222   13.7337 H      61  UNL61       0.0427
    486 H           1.0023    4.8786   13.4197 H      61  UNL61       0.0241
    487 H           1.9665    4.8771   11.9349 H      61  UNL61       0.0241
    488 H           1.9665    3.4552   12.9970 H      61  UNL61       0.0241
    489 CL          6.6562    5.1692   16.5149 Cl     62  UNL62      -0.1257
    490 C           5.1137    4.2875   16.5149 C.3    62  UNL62       0.0198
    491 C           3.9492    5.2553   16.5149 C.3    62  UNL62      -0.0517
    492 H           5.0891    3.6504   15.6263 H      62  UNL62       0.0427
    493 H           5.0891    3.6504   17.4034 H      62  UNL62       0.0427
    494 H           3.0023    4.7060   16.5149 H      62  UNL62       0.0241
    495 H           3.9665    5.8965   17.4023 H      62  UNL62       0.0241
    496 H           3.9665    5.8965   15.6275 H      62  UNL62       0.0241
    497 CL          6.1289    6.1168   19.6966 Cl     63  UNL63      -0.1257
    498 C           5.2047    4.5994   19.6966 C.3    63  UNL63       0.0198
    499 C           3.7175    4.8838   19.6966 C.3    63  UNL63      -0.0517
    500 H           5.4911    4.0298   18.8080 H      63  UNL63       0.0427
    501 H           5.4911    4.0298   20.5851 H      63  UNL63       0.0427
    502 H           3.1540    3.9453   19.6966 H      63  UNL63       0.0241
    503 H           3.4227    5.4535   20.5840 H      63  UNL63       0.0241
    504 H           3.4227    5.4535   18.8092 H      63  UNL63       0.0241
    505 CL          6.6562    5.1692   22.8783 Cl     64  UNL64      -0.1257
    506 C           5.1137    4.2875   22.8783 C.3    64  UNL64       0.0198
    507 C           3.9492    5.2553   22.8783 C.3    64  UNL64      -0.0517
    508 H           5.0891    3.6504   21.9897 H      64  UNL64       0.0427
    509 H           5.0891    3.6504   23.7668 H      64  UNL64       0.0427
    510 H           3.0023    4.7060   22.8783 H      64  UNL64       0.0241
    511 H           3.9665    5.8965   23.7657 H      64  UNL64       0.0241
    512 H           3.9665    5.8965   21.9909 H      64  UNL64       0.0241
    513 CL          6.6562    5.1692   26.0599 Cl     65  UNL65      -0.1257
    514 C           5.1137    4.2875   26.0599 C.3    65  UNL65       0.0198
    515 C           3.9492    5.2553   26.0599 C.3    65  UNL65      -0.0517
    516 H           5.0891    3.6504   25.1713 H      65  UNL65       0.0427
    517 H           5.0891    3.6504   26.9484 H      65  UNL65       0.0427
    518 H           3.0023    4.7060   26.0599 H      65  UNL65       0.0241
    519 H           3.9665    5.8965   26.9473 H      65  UNL65       0.0241
    520 H           3.9665    5.8965   25.1725 H      65  UNL65       0.0241
    521 CL          4.8562    8.1583    0.3219 Cl     66  UNL66      -0.1257
    522 C           3.3137    8.6859    1.0283 C.3    66  UNL66       0.0198
    523 C           2.1492    8.1068    0.2529 C.3    66  UNL66      -0.0517
    524 H           3.2891    8.3553    2.0705 H      66  UNL66       0.0427
    525 H           3.2891    9.7790    1.0069 H      66  UNL66       0.0427
    526 H           1.2023    8.4355    0.6930 H      66  UNL66       0.0241
    527 H           2.1665    8.4340   -0.7919 H      66  UNL66       0.0241
    528 H           2.1665    7.0121    0.2703 H      66  UNL66       0.0241
    529 CL          6.6562    8.7261    3.7882 Cl     67  UNL67      -0.1257
    530 C           5.1137    7.8444    3.7882 C.3    67  UNL67       0.0198
    531 C           3.9492    8.8122    3.7882 C.3    67  UNL67      -0.0517
    532 H           5.0891    7.2073    2.8996 H      67  UNL67       0.0427
    533 H           5.0891    7.2073    4.6767 H      67  UNL67       0.0427
    534 H           3.0023    8.2629    3.7882 H      67  UNL67       0.0241
    535 H           3.9665    9.4534    4.6756 H      67  UNL67       0.0241
    536 H           3.9665    9.4534    2.9008 H      67  UNL67       0.0241
    537 CL          6.1289    9.6737    6.9699 Cl     68  UNL68      -0.1257
    538 C           5.2047    8.1563    6.9699 C.3    68  UNL68       0.0198
    539 C           3.7175    8.4407    6.9699 C.3    68  UNL68      -0.0517
    540 H           5.4911    7.5866    6.0813 H      68  UNL68       0.0427
    541 H           5.4911    7.5866    7.8584 H      68  UNL68       0.0427
    542 H           3.1540    7.5022    6.9699 H      68  UNL68       0.0241
    543 H           3.4227    9.0104    7.8573 H      68  UNL68       0.0241
    544 H           3.4227    9.0104    6.0825 H      68  UNL68       0.0241
    545 CL          4.6562    8.4473    9.8046 Cl     69  UNL69      -0.1257
    546 C           3.1137    8.2576   10.6657 C.3    69  UNL69       0.0198
    547 C           1.9492    8.4658    9.7205 C.3    69  UNL69      -0.0517
    548 H           3.0891    7.2528   11.0967 H      69  UNL69       0.0427
    549 H           3.0891    8.9883   11.4790 H      69  UNL69       0.0427
    550 H           1.0023    8.3476   10.2570 H      69  UNL69       0.0241
    551 H           1.9665    9.4704    9.2852 H      69  UNL69       0.0241
    552 H           1.9665    7.7371    8.9035 H      69  UNL69       0.0241
    553 CL          6.6562    8.7261   13.3332 Cl     70  UNL70      -0.1257
    554 C           5.1137    7.8444   13.3332 C.3    70  UNL70       0.0198
    555 C           3.9492    8.8122   13.3332 C.3    70  UNL70      -0.0517
    556 H           5.0891    7.2073   12.4446 H      70  UNL70       0.0427
    557 H           5.0891    7.2073   14.2217 H      70  UNL70       0.0427
    558 H           3.0023    8.2629   13.3332 H      70  UNL70       0.0241
    559 H           3.9665    9.4534   14.2206 H      70  UNL70       0.0241
    560 H           3.9665    9.4534   12.4458 H      70  UNL70       0.0241
    561 CL          6.1289    9.6737   16.5149 Cl     71  UNL71      -0.1257
    562 C           5.2047    8.1563   16.5149 C.3    71  UNL71       0.0198
    563 C           3.7175    8.4407   16.5149 C.3    71  UNL71      -0.0517
    564 H           5.4911    7.5866   15.6263 H      71  UNL71       0.0427
    565 H           5.4911    7.5866   17.4034 H      71  UNL71       0.0427
    566 H           3.1540    7.5022   16.5149 H      71  UNL71       0.0241
    567 H           3.4227    9.0104   17.4023 H      71  UNL71       0.0241
    568 H           3.4227    9.0104   15.6275 H      71  UNL71       0.0241
    569 CL          6.6562    8.7261   19.6966 Cl     72  UNL72      -0.1257
    570 C           5.1137    7.8444   19.6966 C.3    72  UNL72       0.0198
    571 C           3.9492    8.8122   19.6966 C.3    72  UNL72      -0.0517
    572 H           5.0891    7.2073   18.8080 H      72  UNL72       0.0427
    573 H           5.0891    7.2073   20.5851 H      72  UNL72       0.0427
    574 H           3.0023    8.2629   19.6966 H      72  UNL72       0.0241
    575 H           3.9665    9.4534   20.5840 H      72  UNL72       0.0241
    576 H           3.9665    9.4534   18.8092 H      72  UNL72       0.0241
    577 CL          6.2289    9.6737   22.8783 Cl     73  UNL73      -0.1257
    578 C           5.3047    8.1563   22.8783 C.3    73  UNL73       0.0198
    579 C           3.8175    8.4407   22.8783 C.3    73  UNL73      -0.0517
    580 H           5.5911    7.5866   21.9897 H      73  UNL73       0.0427
    581 H           5.5911    7.5866   23.7668 H      73  UNL73       0.0427
    582 H           3.2540    7.5022   22.8783 H      73  UNL73       0.0241
    583 H           3.5227    9.0104   23.7657 H      73  UNL73       0.0241
    584 H           3.5227    9.0104   21.9909 H      73  UNL73       0.0241
    585 CL          3.2670   10.0463   26.0599 Cl     74  UNL74      -0.1257
    586 C           4.7464    9.0624   26.0599 C.3    74  UNL74       0.0198
    587 C           4.4030    7.5877   26.0599 C.3    74  UNL74      -0.0517
    588 H           5.3270    9.3258   25.1713 H      74  UNL74       0.0427
    589 H           5.3270    9.3258   26.9484 H      74  UNL74       0.0427
    590 H           5.3183    6.9873   26.0599 H      74  UNL74       0.0241
    591 H           3.8220    7.3158   26.9473 H      74  UNL74       0.0241
    592 H           3.8220    7.3158   25.1725 H      74  UNL74       0.0241
    593 CL          6.7562   12.1830   -0.5935 Cl     75  UNL75      -0.1257
    594 C           5.2137   11.3013   -0.5935 C.3    75  UNL75       0.0198
    595 C           4.0492   12.2691   -0.5935 C.3    75  UNL75      -0.0517
    596 H           5.1891   10.6642   -1.4821 H      75  UNL75       0.0427
    597 H           5.1891   10.6642    0.2950 H      75  UNL75       0.0427
    598 H           3.1023   11.7198   -0.5935 H      75  UNL75       0.0241
    599 H           4.0665   12.9103    0.2939 H      75  UNL75       0.0241
    600 H           4.0665   12.9103   -1.4809 H      75  UNL75       0.0241
    601 CL          5.6562   12.2830    1.7882 Cl     76  UNL76      -0.1257
    602 C           4.1137   11.4013    1.7882 C.3    76  UNL76       0.0198
    603 C           2.9492   12.3691    1.7882 C.3    76  UNL76      -0.0517
    604 H           4.0891   10.7642    0.8996 H      76  UNL76       0.0427
    605 H           4.0891   10.7642    2.6767 H      76  UNL76       0.0427
    606 H           2.0023   11.8198    1.7882 H      76  UNL76       0.0241
    607 H           2.9665   13.0103    2.6756 H      76  UNL76       0.0241
    608 H           2.9665   13.0103    0.9008 H      76  UNL76       0.0241
    609 CL          6.6562   12.2830    4.8699 Cl     77  UNL77      -0.1257
    610 C           5.1137   11.4013    4.8699 C.3    77  UNL77       0.0198
    611 C           3.9492   12.3691    4.8699 C.3    77  UNL77      -0.0517
    612 H           5.0891   10.7642    3.9813 H      77  UNL77       0.0427
    613 H           5.0891   10.7642    5.7584 H      77  UNL77       0.0427
    614 H           3.0023   11.8198    4.8699 H      77  UNL77       0.0241
    615 H           3.9665   13.0103    5.7573 H      77  UNL77       0.0241
    616 H           3.9665   13.0103    3.9825 H      77  UNL77       0.0241
    617 CL          2.6879   12.3498    8.2515 Cl     78  UNL78      -0.1257
    618 C           4.4567   12.5174    8.2515 C.3    78  UNL78       0.0198
    619 C           5.1189   11.1557    8.2515 C.3    78  UNL78      -0.0517
    620 H           4.7417   13.0878    7.3629 H      78  UNL78       0.0427
    621 H           4.7417   13.0878    9.1400 H      78  UNL78       0.0427
    622 H           6.2080   11.2660    8.2515 H      78  UNL78       0.0241
    623 H           4.8388   10.5787    9.1389 H      78  UNL78       0.0241
    624 H           4.8388   10.5787    7.3641 H      78  UNL78       0.0241
    625 CL          6.6562   12.2830   11.3332 Cl     79  UNL79      -0.1257
    626 C           5.1137   11.4013   11.3332 C.3    79  UNL79       0.0198
    627 C           3.9492   12.3691   11.3332 C.3    79  UNL79      -0.0517
    628 H           5.0891   10.7642   10.4446 H      79  UNL79       0.0427
    629 H           5.0891   10.7642   12.2217 H      79  UNL79       0.0427
    630 H           3.0023   11.8198   11.3332 H      79  UNL79       0.0241
    631 H           3.9665   13.0103   12.2206 H      79  UNL79       0.0241
    632 H           3.9665   13.0103   10.4458 H      79  UNL79       0.0241
    633 CL          6.6562   12.2830   14.5149 Cl     80  UNL80      -0.1257
    634 C           5.1137   11.4013   14.5149 C.3    80  UNL80       0.0198
    635 C           3.9492   12.3691   14.5149 C.3    80  UNL80      -0.0517
    636 H           5.0891   10.7642   13.6263 H      80  UNL80       0.0427
    637 H           5.0891   10.7642   15.4034 H      80  UNL80       0.0427
    638 H           3.0023   11.8198   14.5149 H      80  UNL80       0.0241
    639 H           3.9665   13.0103   15.4023 H      80  UNL80       0.0241
    640 H           3.9665   13.0103   13.6275 H      80  UNL80       0.0241
    641 CL          6.6562   12.2830   17.6966 Cl     81  UNL81      -0.1257
    642 C           5.1137   11.4013   17.6966 C.3    81  UNL81       0.0198
    643 C           3.9492   12.3691   17.6966 C.3    81  UNL81      -0.0517
    644 H           5.0891   10.7642   16.8080 H      81  UNL81       0.0427
    645 H           5.0891   10.7642   18.5851 H      81  UNL81       0.0427
    646 H           3.0023   11.8198   17.6966 H      81  UNL81       0.0241
    647 H           3.9665   13.0103   18.5840 H      81  UNL81       0.0241
    648 H           3.9665   13.0103   16.8092 H      81  UNL81       0.0241
    649 CL          6.6562   12.2830   20.8783 Cl     82  UNL82      -0.1257
    650 C           5.1137   11.4013   20.8783 C.3    82  UNL82       0.0198
    651 C           3.9492   12.3691   20.8783 C.3    82  UNL82      -0.0517
    652 H           5.0891   10.7642   19.9897 H      82  UNL82       0.0427
    653 H           5.0891   10.7642   21.7668 H      82  UNL82       0.0427
    654 H           3.0023   11.8198   20.8783 H      82  UNL82       0.0241
    655 H           3.9665   13.0103   21.7657 H      82  UNL82       0.0241
    656 H           3.9665   13.0103   19.9909 H      82  UNL82       0.0241
    657 CL          6.6562   12.2830   24.0599 Cl     83  UNL83      -0.1257
    658 C           5.1137   11.4013   24.0599 C.3    83  UNL83       0.0198
    659 C           3.9492   12.3691   24.0599 C.3    83  UNL83      -0.0517
    660 H           5.0891   10.7642   23.1713 H      83  UNL83       0.0427
    661 H           5.0891   10.7642   24.9484 H      83  UNL83       0.0427
    662 H           3.0023   11.8198   24.0599 H      83  UNL83       0.0241
    663 H           3.9665   13.0103   24.9473 H      83  UNL83       0.0241
    664 H           3.9665   13.0103   23.1725 H      83  UNL83       0.0241
    665 CL          6.6562   12.2830   27.2416 Cl     84  UNL84      -0.1257
    666 C           5.1137   11.4013   27.2416 C.3    84  UNL84       0.0198
    667 C           3.9492   12.3691   27.2416 C.3    84  UNL84      -0.0517
    668 H           5.0891   10.7642   26.3530 H      84  UNL84       0.0427
    669 H           5.0891   10.7642   28.1301 H      84  UNL84       0.0427
    670 H           3.0023   11.8198   27.2416 H      84  UNL84       0.0241
    671 H           3.9665   13.0103   28.1290 H      84  UNL84       0.0241
    672 H           3.9665   13.0103   26.3542 H      84  UNL84       0.0241
    673 CL          4.3562   15.5610    0.2596 Cl     85  UNL85      -0.1257
    674 C           2.8137   15.3714    1.1206 C.3    85  UNL85       0.0198
    675 C           1.6492   15.5796    0.1755 C.3    85  UNL85      -0.0517
    676 H           2.7891   14.3665    1.5517 H      85  UNL85       0.0427
    677 H           2.7891   16.1020    1.9339 H      85  UNL85       0.0427
    678 H           0.7023   15.4614    0.7119 H      85  UNL85       0.0241
    679 H           1.6665   16.5841   -0.2598 H      85  UNL85       0.0241
    680 H           1.6665   14.8509   -0.6416 H      85  UNL85       0.0241
    681 CL          6.6562   15.8398    3.7882 Cl     86  UNL86      -0.1257
    682 C           5.1137   14.9581    3.7882 C.3    86  UNL86       0.0198
    683 C           3.9492   15.9259    3.7882 C.3    86  UNL86      -0.0517
    684 H           5.0891   14.3210    2.8996 H      86  UNL86       0.0427
    685 H           5.0891   14.3210    4.6767 H      86  UNL86       0.0427
    686 H           3.0023   15.3766    3.7882 H      86  UNL86       0.0241
    687 H           3.9665   16.5671    4.6756 H      86  UNL86       0.0241
    688 H           3.9665   16.5671    2.9008 H      86  UNL86       0.0241
    689 CL          6.2289   16.7874    6.9699 Cl     87  UNL87      -0.1257
    690 C           5.3047   15.2700    6.9699 C.3    87  UNL87       0.0198
    691 C           3.8175   15.5545    6.9699 C.3    87  UNL87      -0.0517
    692 H           5.5911   14.7004    6.0813 H      87  UNL87       0.0427
    693 H           5.5911   14.7004    7.8584 H      87  UNL87       0.0427
    694 H           3.2540   14.6159    6.9699 H      87  UNL87       0.0241
    695 H           3.5227   16.1242    7.8573 H      87  UNL87       0.0241
    696 H           3.5227   16.1242    6.0825 H      87  UNL87       0.0241
    697 CL          4.6562   15.2720   10.4361 Cl     88  UNL88      -0.1257
    698 C           3.1137   15.7997    9.7297 C.3    88  UNL88       0.0198
    699 C           1.9492   15.2205   10.5051 C.3    88  UNL88      -0.0517
    700 H           3.0891   16.8929    9.7511 H      88  UNL88       0.0427
    701 H           3.0891   15.4691    8.6876 H      88  UNL88       0.0427
    702 H           1.0023   15.5492   10.0650 H      88  UNL88       0.0241
    703 H           1.9665   14.1258   10.4877 H      88  UNL88       0.0241
    704 H           1.9665   15.5477   11.5499 H      88  UNL88       0.0241
    705 CL          4.8562   15.2720   13.6178 Cl     89  UNL89      -0.1257
    706 C           3.3137   15.7997   12.9114 C.3    89  UNL89       0.0198
    707 C           2.1492   15.2205   13.6868 C.3    89  UNL89      -0.0517
    708 H           3.2891   16.8929   12.9328 H      89  UNL89       0.0427
    709 H           3.2891   15.4691   11.8693 H      89  UNL89       0.0427
    710 H           1.2023   15.5492   13.2467 H      89  UNL89       0.0241
    711 H           2.1665   14.1258   13.6694 H      89  UNL89       0.0241
    712 H           2.1665   15.5477   14.7315 H      89  UNL89       0.0241
    713 CL          6.6562   15.8398   16.5149 Cl     90  UNL90      -0.1257
    714 C           5.1137   14.9581   16.5149 C.3    90  UNL90       0.0198
    715 C           3.9492   15.9259   16.5149 C.3    90  UNL90      -0.0517
    716 H           5.0891   14.3210   15.6263 H      90  UNL90       0.0427
    717 H           5.0891   14.3210   17.4034 H      90  UNL90       0.0427
    718 H           3.0023   15.3766   16.5149 H      90  UNL90       0.0241
    719 H           3.9665   16.5671   17.4023 H      90  UNL90       0.0241
    720 H           3.9665   16.5671   15.6275 H      90  UNL90       0.0241
    721 CL          4.6562   15.2720   19.9811 Cl     91  UNL91      -0.1257
    722 C           3.1137   15.7997   19.2748 C.3    91  UNL91       0.0198
    723 C           1.9492   15.2205   20.0501 C.3    91  UNL91      -0.0517
    724 H           3.0891   16.8929   19.2961 H      91  UNL91       0.0427
    725 H           3.0891   15.4691   18.2326 H      91  UNL91       0.0427
    726 H           1.0023   15.5492   19.6101 H      91  UNL91       0.0241
    727 H           1.9665   14.1258   20.0328 H      91  UNL91       0.0241
    728 H           1.9665   15.5477   21.0949 H      91  UNL91       0.0241
    729 CL          6.6562   15.8398   22.8783 Cl     92  UNL92      -0.1257
    730 C           5.1137   14.9581   22.8783 C.3    92  UNL92       0.0198
    731 C           3.9492   15.9259   22.8783 C.3    92  UNL92      -0.0517
    732 H           5.0891   14.3210   21.9897 H      92  UNL92       0.0427
    733 H           5.0891   14.3210   23.7668 H      92  UNL92       0.0427
    734 H           3.0023   15.3766   22.8783 H      92  UNL92       0.0241
    735 H           3.9665   16.5671   23.7657 H      92  UNL92       0.0241
    736 H           3.9665   16.5671   21.9909 H      92  UNL92       0.0241
    737 CL          4.6562   15.2720   26.3445 Cl     93  UNL93      -0.1257
    738 C           3.1137   15.7997   25.6381 C.3    93  UNL93       0.0198
    739 C           1.9492   15.2205   26.4135 C.3    93  UNL93      -0.0517
    740 H           3.0891   16.8929   25.6595 H      93  UNL93       0.0427
    741 H           3.0891   15.4691   24.5960 H      93  UNL93       0.0427
    742 H           1.0023   15.5492   25.9734 H      93  UNL93       0.0241
    743 H           1.9665   14.1258   26.3961 H      93  UNL93       0.0241
    744 H           1.9665   15.5477   27.4583 H      93  UNL93       0.0241
    745 CL          6.7562   19.2967   -0.3935 Cl     94  UNL94      -0.1257
    746 C           5.2137   18.4150   -0.3935 C.3    94  UNL94       0.0198
    747 C           4.0492   19.3828   -0.3935 C.3    94  UNL94      -0.0517
    748 H           5.1891   17.7779   -1.2821 H      94  UNL94       0.0427
    749 H           5.1891   17.7779    0.4950 H      94  UNL94       0.0427
    750 H           3.1023   18.8335   -0.3935 H      94  UNL94       0.0241
    751 H           4.0665   20.0240    0.4939 H      94  UNL94       0.0241
    752 H           4.0665   20.0240   -1.2809 H      94  UNL94       0.0241
    753 CL          4.6562   18.8289    3.5036 Cl     95  UNL95      -0.1257
    754 C           3.1137   19.3566    4.2099 C.3    95  UNL95       0.0198
    755 C           1.9492   18.7774    3.4346 C.3    95  UNL95      -0.0517
    756 H           3.0891   19.0260    5.2521 H      95  UNL95       0.0427
    757 H           3.0891   20.4497    4.1886 H      95  UNL95       0.0427
    758 H           1.0023   19.1061    3.8747 H      95  UNL95       0.0241
    759 H           1.9665   19.1046    2.3898 H      95  UNL95       0.0241
    760 H           1.9665   17.6827    3.4520 H      95  UNL95       0.0241
    761 CL          6.6562   19.3967    6.9699 Cl     96  UNL96      -0.1257
    762 C           5.1137   18.5150    6.9699 C.3    96  UNL96       0.0198
    763 C           3.9492   19.4828    6.9699 C.3    96  UNL96      -0.0517
    764 H           5.0891   17.8779    6.0813 H      96  UNL96       0.0427
    765 H           5.0891   17.8779    7.8584 H      96  UNL96       0.0427
    766 H           3.0023   18.9335    6.9699 H      96  UNL96       0.0241
    767 H           3.9665   20.1240    7.8573 H      96  UNL96       0.0241
    768 H           3.9665   20.1240    6.0825 H      96  UNL96       0.0241
    769 CL          6.6562   19.3967   10.1515 Cl     97  UNL97      -0.1257
    770 C           5.1137   18.5150   10.1515 C.3    97  UNL97       0.0198
    771 C           3.9492   19.4828   10.1515 C.3    97  UNL97      -0.0517
    772 H           5.0891   17.8779    9.2629 H      97  UNL97       0.0427
    773 H           5.0891   17.8779   11.0400 H      97  UNL97       0.0427
    774 H           3.0023   18.9335   10.1515 H      97  UNL97       0.0241
    775 H           3.9665   20.1240   11.0389 H      97  UNL97       0.0241
    776 H           3.9665   20.1240    9.2641 H      97  UNL97       0.0241
    777 CL          6.6562   19.3967   13.3332 Cl     98  UNL98      -0.1257
    778 C           5.1137   18.5150   13.3332 C.3    98  UNL98       0.0198
    779 C           3.9492   19.4828   13.3332 C.3    98  UNL98      -0.0517
    780 H           5.0891   17.8779   12.4446 H      98  UNL98       0.0427
    781 H           5.0891   17.8779   14.2217 H      98  UNL98       0.0427
    782 H           3.0023   18.9335   13.3332 H      98  UNL98       0.0241
    783 H           3.9665   20.1240   14.2206 H      98  UNL98       0.0241
    784 H           3.9665   20.1240   12.4458 H      98  UNL98       0.0241
    785 CL          3.2670   20.7169   16.5149 Cl     99  UNL99      -0.1257
    786 C           4.7464   19.7330   16.5149 C.3    99  UNL99       0.0198
    787 C           4.4030   18.2583   16.5149 C.3    99  UNL99      -0.0517
    788 H           5.3270   19.9965   15.6263 H      99  UNL99       0.0427
    789 H           5.3270   19.9965   17.4034 H      99  UNL99       0.0427
    790 H           5.3183   17.6579   16.5149 H      99  UNL99       0.0241
    791 H           3.8220   17.9865   17.4023 H      99  UNL99       0.0241
    792 H           3.8220   17.9865   15.6275 H      99  UNL99       0.0241
    793 CL          6.6562   19.3967   19.6966 Cl    100  UNL100     -0.1257
    794 C           5.1137   18.5150   19.6966 C.3   100  UNL100      0.0198
    795 C           3.9492   19.4828   19.6966 C.3   100  UNL100     -0.0517
    796 H           5.0891   17.8779   18.8080 H     100  UNL100      0.0427
    797 H           5.0891   17.8779   20.5851 H     100  UNL100      0.0427
    798 H           3.0023   18.9335   19.6966 H     100  UNL100      0.0241
    799 H           3.9665   20.1240   20.5840 H     100  UNL100      0.0241
    800 H           3.9665   20.1240   18.8092 H     100  UNL100      0.0241
    801 CL          3.2670   20.7169   22.8783 Cl    101  UNL101     -0.1257
    802 C           4.7464   19.7330   22.8783 C.3   101  UNL101      0.0198
    803 C           4.4030   18.2583   22.8783 C.3   101  UNL101     -0.0517
    804 H           5.3270   19.9965   21.9897 H     101  UNL101      0.0427
    805 H           5.3270   19.9965   23.7668 H     101  UNL101      0.0427
    806 H           5.3183   17.6579   22.8783 H     101  UNL101      0.0241
    807 H           3.8220   17.9865   23.7657 H     101  UNL101      0.0241
    808 H           3.8220   17.9865   21.9909 H     101  UNL101      0.0241
    809 CL          6.6562   19.3967   26.0599 Cl    102  UNL102     -0.1257
    810 C           5.1137   18.5150   26.0599 C.3   102  UNL102      0.0198
    811 C           3.9492   19.4828   26.0599 C.3   102  UNL102     -0.0517
    812 H           5.0891   17.8779   25.1713 H     102  UNL102      0.0427
    813 H           5.0891   17.8779   26.9484 H     102  UNL102      0.0427
    814 H           3.0023   18.9335   26.0599 H     102  UNL102      0.0241
    815 H           3.9665   20.1240   26.9473 H     102  UNL102      0.0241
    816 H           3.9665   20.1240   25.1725 H     102  UNL102      0.0241
    817 CL          9.7593   -0.0877    0.6065 Cl    103  UNL103     -0.1257
    818 C           8.2168   -0.9694    0.6065 C.3   103  UNL103      0.0198
    819 C           7.0523   -0.0016    0.6065 C.3   103  UNL103     -0.0517
    820 H           8.1922   -1.6065   -0.2821 H     103  UNL103      0.0427
    821 H           8.1922   -1.6065    1.4950 H     103  UNL103      0.0427
    822 H           6.1054   -0.5509    0.6065 H     103  UNL103      0.0241
    823 H           7.0696    0.6396    1.4939 H     103  UNL103      0.0241
    824 H           7.0696    0.6396   -0.2809 H     103  UNL103      0.0241
    825 CL         11.4320    2.5599    3.7882 Cl    104  UNL104     -0.1257
    826 C          10.5078    1.0425    3.7882 C.3   104  UNL104      0.0198
    827 C           9.0206    1.3269    3.7882 C.3   104  UNL104     -0.0517
    828 H          10.7942    0.4729    2.8996 H     104  UNL104      0.0427
    829 H          10.7942    0.4729    4.6767 H     104  UNL104      0.0427
    830 H           8.4571    0.3884    3.7882 H     104  UNL104      0.0241
    831 H           8.7258    1.8966    4.6756 H     104  UNL104      0.0241
    832 H           8.7258    1.8966    2.9008 H     104  UNL104      0.0241
    833 CL         11.9593    1.6123    6.9699 Cl    105  UNL105     -0.1257
    834 C          10.4168    0.7306    6.9699 C.3   105  UNL105      0.0198
    835 C           9.2523    1.6984    6.9699 C.3   105  UNL105     -0.0517
    836 H          10.3922    0.0935    6.0813 H     105  UNL105      0.0427
    837 H          10.3922    0.0935    7.8584 H     105  UNL105      0.0427
    838 H           8.3054    1.1491    6.9699 H     105  UNL105      0.0241
    839 H           9.2696    2.3396    7.8573 H     105  UNL105      0.0241
    840 H           9.2696    2.3396    6.0825 H     105  UNL105      0.0241
    841 CL          7.8374    1.7123   11.0972 Cl    106  UNL106     -0.1257
    842 C           9.2428    0.8306   10.4615 C.3   106  UNL106      0.0198
    843 C          10.3038    1.7984    9.9816 C.3   106  UNL106     -0.0517
    844 H           9.6315    0.1935   11.2610 H     106  UNL106      0.0427
    845 H           8.8991    0.1935    9.6419 H     106  UNL106      0.0427
    846 H          11.1666    1.2491    9.5914 H     106  UNL106      0.0241
    847 H           9.9224    2.4396    9.1802 H     106  UNL106      0.0241
    848 H          10.6538    2.4396   10.7973 H     106  UNL106      0.0241
    849 CL         11.4320    2.5599   13.3332 Cl    107  UNL107     -0.1257
    850 C          10.5078    1.0425   13.3332 C.3   107  UNL107      0.0198
    851 C           9.0206    1.3269   13.3332 C.3   107  UNL107     -0.0517
    852 H          10.7942    0.4729   12.4446 H     107  UNL107      0.0427
    853 H          10.7942    0.4729   14.2217 H     107  UNL107      0.0427
    854 H           8.4571    0.3884   13.3332 H     107  UNL107      0.0241
    855 H           8.7258    1.8966   14.2206 H     107  UNL107      0.0241
    856 H           8.7258    1.8966   12.4458 H     107  UNL107      0.0241
    857 CL         11.9593    1.6123   16.5149 Cl    108  UNL108     -0.1257
    858 C          10.4168    0.7306   16.5149 C.3   108  UNL108      0.0198
    859 C           9.2523    1.6984   16.5149 C.3   108  UNL108     -0.0517
    860 H          10.3922    0.0935   15.6263 H     108  UNL108      0.0427
    861 H          10.3922    0.0935   17.4034 H     108  UNL108      0.0427
    862 H           8.3054    1.1491   16.5149 H     108  UNL108      0.0241
    863 H           9.2696    2.3396   17.4023 H     108  UNL108      0.0241
    864 H           9.2696    2.3396   15.6275 H     108  UNL108      0.0241
    865 CL          8.4701    2.9325   19.6966 Cl    109  UNL109     -0.1257
    866 C           9.9495    1.9486   19.6966 C.3   109  UNL109      0.0198
    867 C           9.6061    0.4739   19.6966 C.3   109  UNL109     -0.0517
    868 H          10.5301    2.2121   18.8080 H     109  UNL109      0.0427
    869 H          10.5301    2.2121   20.5851 H     109  UNL109      0.0427
    870 H          10.5214   -0.1265   19.6966 H     109  UNL109      0.0241
    871 H           9.0251    0.2021   20.5840 H     109  UNL109      0.0241
    872 H           9.0251    0.2021   18.8092 H     109  UNL109      0.0241
    873 CL         11.8593    1.6123   22.8783 Cl    110  UNL110     -0.1257
    874 C          10.3168    0.7306   22.8783 C.3   110  UNL110      0.0198
    875 C           9.1523    1.6984   22.8783 C.3   110  UNL110     -0.0517
    876 H          10.2922    0.0935   21.9897 H     110  UNL110      0.0427
    877 H          10.2922    0.0935   23.7668 H     110  UNL110      0.0427
    878 H           8.2054    1.1491   22.8783 H     110  UNL110      0.0241
    879 H           9.1696    2.3396   23.7657 H     110  UNL110      0.0241
    880 H           9.1696    2.3396   21.9909 H     110  UNL110      0.0241
    881 CL         11.4320    2.5599   26.0599 Cl    111  UNL111     -0.1257
    882 C          10.5078    1.0425   26.0599 C.3   111  UNL111      0.0198
    883 C           9.0206    1.3269   26.0599 C.3   111  UNL111     -0.0517
    884 H          10.7942    0.4729   25.1713 H     111  UNL111      0.0427
    885 H          10.7942    0.4729   26.9484 H     111  UNL111      0.0427
    886 H           8.4571    0.3884   26.0599 H     111  UNL111      0.0241
    887 H           8.7258    1.8966   26.9473 H     111  UNL111      0.0241
    888 H           8.7258    1.8966   25.1725 H     111  UNL111      0.0241
    889 CL         11.8593    3.1692    0.6065 Cl    112  UNL112     -0.1257
    890 C          10.3168    2.2875    0.6065 C.3   112  UNL112      0.0198
    891 C           9.1523    3.2553    0.6065 C.3   112  UNL112     -0.0517
    892 H          10.2922    1.6504   -0.2821 H     112  UNL112      0.0427
    893 H          10.2922    1.6504    1.4950 H     112  UNL112      0.0427
    894 H           8.2054    2.7060    0.6065 H     112  UNL112      0.0241
    895 H           9.1696    3.8965    1.4939 H     112  UNL112      0.0241
    896 H           9.1696    3.8965   -0.2809 H     112  UNL112      0.0241
    897 CL         11.8593    5.1692    3.7882 Cl    113  UNL113     -0.1257
    898 C          10.3168    4.2875    3.7882 C.3   113  UNL113      0.0198
    899 C           9.1523    5.2553    3.7882 C.3   113  UNL113     -0.0517
    900 H          10.2922    3.6504    2.8996 H     113  UNL113      0.0427
    901 H          10.2922    3.6504    4.6767 H     113  UNL113      0.0427
    902 H           8.2054    4.7060    3.7882 H     113  UNL113      0.0241
    903 H           9.1696    5.8965    4.6756 H     113  UNL113      0.0241
    904 H           9.1696    5.8965    2.9008 H     113  UNL113      0.0241
    905 CL          8.4701    6.4894    6.9699 Cl    114  UNL114     -0.1257
    906 C           9.9495    5.5055    6.9699 C.3   114  UNL114      0.0198
    907 C           9.6061    4.0308    6.9699 C.3   114  UNL114     -0.0517
    908 H          10.5301    5.7690    6.0813 H     114  UNL114      0.0427
    909 H          10.5301    5.7690    7.8584 H     114  UNL114      0.0427
    910 H          10.5214    3.4304    6.9699 H     114  UNL114      0.0241
    911 H           9.0251    3.7589    7.8573 H     114  UNL114      0.0241
    912 H           9.0251    3.7589    6.0825 H     114  UNL114      0.0241
    913 CL         11.4320    6.1168   10.1515 Cl    115  UNL115     -0.1257
    914 C          10.5078    4.5994   10.1515 C.3   115  UNL115      0.0198
    915 C           9.0206    4.8838   10.1515 C.3   115  UNL115     -0.0517
    916 H          10.7942    4.0298    9.2629 H     115  UNL115      0.0427
    917 H          10.7942    4.0298   11.0400 H     115  UNL115      0.0427
    918 H           8.4571    3.9453   10.1515 H     115  UNL115      0.0241
    919 H           8.7258    5.4535   11.0389 H     115  UNL115      0.0241
    920 H           8.7258    5.4535    9.2641 H     115  UNL115      0.0241
    921 CL         11.9593    5.1692   13.3332 Cl    116  UNL116     -0.1257
    922 C          10.4168    4.2875   13.3332 C.3   116  UNL116      0.0198
    923 C           9.2523    5.2553   13.3332 C.3   116  UNL116     -0.0517
    924 H          10.3922    3.6504   12.4446 H     116  UNL116      0.0427
    925 H          10.3922    3.6504   14.2217 H     116  UNL116      0.0427
    926 H           8.3054    4.7060   13.3332 H     116  UNL116      0.0241
    927 H           9.2696    5.8965   14.2206 H     116  UNL116      0.0241
    928 H           9.2696    5.8965   12.4458 H     116  UNL116      0.0241
    929 CL          8.4701    6.4894   16.5149 Cl    117  UNL117     -0.1257
    930 C           9.9495    5.5055   16.5149 C.3   117  UNL117      0.0198
    931 C           9.6061    4.0308   16.5149 C.3   117  UNL117     -0.0517
    932 H          10.5301    5.7690   15.6263 H     117  UNL117      0.0427
    933 H          10.5301    5.7690   17.4034 H     117  UNL117      0.0427
    934 H          10.5214    3.4304   16.5149 H     117  UNL117      0.0241
    935 H           9.0251    3.7589   17.4023 H     117  UNL117      0.0241
    936 H           9.0251    3.7589   15.6275 H     117  UNL117      0.0241
    937 CL         11.9593    5.1692   19.6966 Cl    118  UNL118     -0.1257
    938 C          10.4168    4.2875   19.6966 C.3   118  UNL118      0.0198
    939 C           9.2523    5.2553   19.6966 C.3   118  UNL118     -0.0517
    940 H          10.3922    3.6504   18.8080 H     118  UNL118      0.0427
    941 H          10.3922    3.6504   20.5851 H     118  UNL118      0.0427
    942 H           8.3054    4.7060   19.6966 H     118  UNL118      0.0241
    943 H           9.2696    5.8965   20.5840 H     118  UNL118      0.0241
    944 H           9.2696    5.8965   18.8092 H     118  UNL118      0.0241
    945 CL         11.4320    6.1168   22.8783 Cl    119  UNL119     -0.1257
    946 C          10.5078    4.5994   22.8783 C.3   119  UNL119      0.0198
    947 C           9.0206    4.8838   22.8783 C.3   119  UNL119     -0.0517
    948 H          10.7942    4.0298   21.9897 H     119  UNL119      0.0427
    949 H          10.7942    4.0298   23.7668 H     119  UNL119      0.0427
    950 H           8.4571    3.9453   22.8783 H     119  UNL119      0.0241
    951 H           8.7258    5.4535   23.7657 H     119  UNL119      0.0241
    952 H           8.7258    5.4535   21.9909 H     119  UNL119      0.0241
    953 CL         11.8593    5.1692   26.0599 Cl    120  UNL120     -0.1257
    954 C          10.3168    4.2875   26.0599 C.3   120  UNL120      0.0198
    955 C           9.1523    5.2553   26.0599 C.3   120  UNL120     -0.0517
    956 H          10.2922    3.6504   25.1713 H     120  UNL120      0.0427
    957 H          10.2922    3.6504   26.9484 H     120  UNL120      0.0427
    958 H           8.2054    4.7060   26.0599 H     120  UNL120      0.0241
    959 H           9.1696    5.8965   26.9473 H     120  UNL120      0.0241
    960 H           9.1696    5.8965   25.1725 H     120  UNL120      0.0241
    961 CL         11.8593    8.7261    0.6065 Cl    121  UNL121     -0.1257
    962 C          10.3168    7.8444    0.6065 C.3   121  UNL121      0.0198
    963 C           9.1523    8.8122    0.6065 C.3   121  UNL121     -0.0517
    964 H          10.2922    7.2073   -0.2821 H     121  UNL121      0.0427
    965 H          10.2922    7.2073    1.4950 H     121  UNL121      0.0427
    966 H           8.2054    8.2629    0.6065 H     121  UNL121      0.0241
    967 H           9.1696    9.4534    1.4939 H     121  UNL121      0.0241
    968 H           9.1696    9.4534   -0.2809 H     121  UNL121      0.0241
    969 CL         11.4320    9.6737    3.7882 Cl    122  UNL122     -0.1257
    970 C          10.5078    8.1563    3.7882 C.3   122  UNL122      0.0198
    971 C           9.0206    8.4407    3.7882 C.3   122  UNL122     -0.0517
    972 H          10.7942    7.5866    2.8996 H     122  UNL122      0.0427
    973 H          10.7942    7.5866    4.6767 H     122  UNL122      0.0427
    974 H           8.4571    7.5022    3.7882 H     122  UNL122      0.0241
    975 H           8.7258    9.0104    4.6756 H     122  UNL122      0.0241
    976 H           8.7258    9.0104    2.9008 H     122  UNL122      0.0241
    977 CL         11.9593    8.7261    6.9699 Cl    123  UNL123     -0.1257
    978 C          10.4168    7.8444    6.9699 C.3   123  UNL123      0.0198
    979 C           9.2523    8.8122    6.9699 C.3   123  UNL123     -0.0517
    980 H          10.3922    7.2073    6.0813 H     123  UNL123      0.0427
    981 H          10.3922    7.2073    7.8584 H     123  UNL123      0.0427
    982 H           8.3054    8.2629    6.9699 H     123  UNL123      0.0241
    983 H           9.2696    9.4534    7.8573 H     123  UNL123      0.0241
    984 H           9.2696    9.4534    6.0825 H     123  UNL123      0.0241
    985 CL         11.8593    8.7261   10.1515 Cl    124  UNL124     -0.1257
    986 C          10.3168    7.8444   10.1515 C.3   124  UNL124      0.0198
    987 C           9.1523    8.8122   10.1515 C.3   124  UNL124     -0.0517
    988 H          10.2922    7.2073    9.2629 H     124  UNL124      0.0427
    989 H          10.2922    7.2073   11.0400 H     124  UNL124      0.0427
    990 H           8.2054    8.2629   10.1515 H     124  UNL124      0.0241
    991 H           9.1696    9.4534   11.0389 H     124  UNL124      0.0241
    992 H           9.1696    9.4534    9.2641 H     124  UNL124      0.0241
    993 CL         11.4320    9.6737   13.3332 Cl    125  UNL125     -0.1257
    994 C          10.5078    8.1563   13.3332 C.3   125  UNL125      0.0198
    995 C           9.0206    8.4407   13.3332 C.3   125  UNL125     -0.0517
    996 H          10.7942    7.5866   12.4446 H     125  UNL125      0.0427
    997 H          10.7942    7.5866   14.2217 H     125  UNL125      0.0427
    998 H           8.4571    7.5022   13.3332 H     125  UNL125      0.0241
    999 H           8.7258    9.0104   14.2206 H     125  UNL125      0.0241
   1000 H           8.7258    9.0104   12.4458 H     125  UNL125      0.0241
   1001 CL         11.7593    8.7261   16.5149 Cl    126  UNL126     -0.1257
   1002 C          10.2168    7.8444   16.5149 C.3   126  UNL126      0.0198
   1003 C           9.0523    8.8122   16.5149 C.3   126  UNL126     -0.0517
   1004 H          10.1922    7.2073   15.6263 H     126  UNL126      0.0427
   1005 H          10.1922    7.2073   17.4034 H     126  UNL126      0.0427
   1006 H           8.1054    8.2629   16.5149 H     126  UNL126      0.0241
   1007 H           9.0696    9.4534   17.4023 H     126  UNL126      0.0241
   1008 H           9.0696    9.4534   15.6275 H     126  UNL126      0.0241
   1009 CL         11.4320    9.6737   19.6966 Cl    127  UNL127     -0.1257
   1010 C          10.5078    8.1563   19.6966 C.3   127  UNL127      0.0198
   1011 C           9.0206    8.4407   19.6966 C.3   127  UNL127     -0.0517
   1012 H          10.7942    7.5866   18.8080 H     127  UNL127      0.0427
   1013 H          10.7942    7.5866   20.5851 H     127  UNL127      0.0427
   1014 H           8.4571    7.5022   19.6966 H     127  UNL127      0.0241
   1015 H           8.7258    9.0104   20.5840 H     127  UNL127      0.0241
   1016 H           8.7258    9.0104   18.8092 H     127  UNL127      0.0241
   1017 CL         11.8593    8.7261   22.8783 Cl    128  UNL128     -0.1257
   1018 C          10.3168    7.8444   22.8783 C.3   128  UNL128      0.0198
   1019 C           9.1523    8.8122   22.8783 C.3   128  UNL128     -0.0517
   1020 H          10.2922    7.2073   21.9897 H     128  UNL128      0.0427
   1021 H          10.2922    7.2073   23.7668 H     128  UNL128      0.0427
   1022 H           8.2054    8.2629   22.8783 H     128  UNL128      0.0241
   1023 H           9.1696    9.4534   23.7657 H     128  UNL128      0.0241
   1024 H           9.1696    9.4534   21.9909 H     128  UNL128      0.0241
   1025 CL          9.8593    8.1583   26.3445 Cl    129  UNL129     -0.1257
   1026 C           8.3168    8.6859   25.6381 C.3   129  UNL129      0.0198
   1027 C           7.1523    8.1067   26.4135 C.3   129  UNL129     -0.0517
   1028 H           8.2922    9.7791   25.6595 H     129  UNL129      0.0427
   1029 H           8.2922    8.3554   24.5960 H     129  UNL129      0.0427
   1030 H           6.2054    8.4355   25.9734 H     129  UNL129      0.0241
   1031 H           7.1696    7.0121   26.3961 H     129  UNL129      0.0241
   1032 H           7.1696    8.4339   27.4583 H     129  UNL129      0.0241
   1033 CL          8.4701   13.6032    0.6065 Cl    130  UNL130     -0.1257
   1034 C           9.9495   12.6192    0.6065 C.3   130  UNL130      0.0198
   1035 C           9.6061   11.1445    0.6065 C.3   130  UNL130     -0.0517
   1036 H          10.5301   12.8827   -0.2821 H     130  UNL130      0.0427
   1037 H          10.5301   12.8827    1.4950 H     130  UNL130      0.0427
   1038 H          10.5214   10.5441    0.6065 H     130  UNL130      0.0241
   1039 H           9.0251   10.8727    1.4939 H     130  UNL130      0.0241
   1040 H           9.0251   10.8727   -0.2809 H     130  UNL130      0.0241
   1041 CL         11.8593   12.2830    3.7882 Cl    131  UNL131     -0.1257
   1042 C          10.3168   11.4013    3.7882 C.3   131  UNL131      0.0198
   1043 C           9.1523   12.3691    3.7882 C.3   131  UNL131     -0.0517
   1044 H          10.2922   10.7642    2.8996 H     131  UNL131      0.0427
   1045 H          10.2922   10.7642    4.6767 H     131  UNL131      0.0427
   1046 H           8.2054   11.8198    3.7882 H     131  UNL131      0.0241
   1047 H           9.1696   13.0103    4.6756 H     131  UNL131      0.0241
   1048 H           9.1696   13.0103    2.9008 H     131  UNL131      0.0241
   1049 CL          8.4701   13.6032    6.9699 Cl    132  UNL132     -0.1257
   1050 C           9.9495   12.6192    6.9699 C.3   132  UNL132      0.0198
   1051 C           9.6061   11.1445    6.9699 C.3   132  UNL132     -0.0517
   1052 H          10.5301   12.8827    6.0813 H     132  UNL132      0.0427
   1053 H          10.5301   12.8827    7.8584 H     132  UNL132      0.0427
   1054 H          10.5214   10.5441    6.9699 H     132  UNL132      0.0241
   1055 H           9.0251   10.8727    7.8573 H     132  UNL132      0.0241
   1056 H           9.0251   10.8727    6.0825 H     132  UNL132      0.0241
   1057 CL         11.8593   12.2830   10.1515 Cl    133  UNL133     -0.1257
   1058 C          10.3168   11.4013   10.1515 C.3   133  UNL133      0.0198
   1059 C           9.1523   12.3691   10.1515 C.3   133  UNL133     -0.0517
   1060 H          10.2922   10.7642    9.2629 H     133  UNL133      0.0427
   1061 H          10.2922   10.7642   11.0400 H     133  UNL133      0.0427
   1062 H           8.2054   11.8198   10.1515 H     133  UNL133      0.0241
   1063 H           9.1696   13.0103   11.0389 H     133  UNL133      0.0241
   1064 H           9.1696   13.0103    9.2641 H     133  UNL133      0.0241
   1065 CL         11.8593   12.2830   13.3332 Cl    134  UNL134     -0.1257
   1066 C          10.3168   11.4013   13.3332 C.3   134  UNL134      0.0198
   1067 C           9.1523   12.3691   13.3332 C.3   134  UNL134     -0.0517
   1068 H          10.2922   10.7642   12.4446 H     134  UNL134      0.0427
   1069 H          10.2922   10.7642   14.2217 H     134  UNL134      0.0427
   1070 H           8.2054   11.8198   13.3332 H     134  UNL134      0.0241
   1071 H           9.1696   13.0103   14.2206 H     134  UNL134      0.0241
   1072 H           9.1696   13.0103   12.4458 H     134  UNL134      0.0241
   1073 CL          8.4701   13.6032   16.5149 Cl    135  UNL135     -0.1257
   1074 C           9.9495   12.6192   16.5149 C.3   135  UNL135      0.0198
   1075 C           9.6061   11.1445   16.5149 C.3   135  UNL135     -0.0517
   1076 H          10.5301   12.8827   15.6263 H     135  UNL135      0.0427
   1077 H          10.5301   12.8827   17.4034 H     135  UNL135      0.0427
   1078 H          10.5214   10.5441   16.5149 H     135  UNL135      0.0241
   1079 H           9.0251   10.8727   17.4023 H     135  UNL135      0.0241
   1080 H           9.0251   10.8727   15.6275 H     135  UNL135      0.0241
   1081 CL         11.9593   12.2830   19.6966 Cl    136  UNL136     -0.1257
   1082 C          10.4168   11.4013   19.6966 C.3   136  UNL136      0.0198
   1083 C           9.2523   12.3691   19.6966 C.3   136  UNL136     -0.0517
   1084 H          10.3922   10.7642   18.8080 H     136  UNL136      0.0427
   1085 H          10.3922   10.7642   20.5851 H     136  UNL136      0.0427
   1086 H           8.3054   11.8198   19.6966 H     136  UNL136      0.0241
   1087 H           9.2696   13.0103   20.5840 H     136  UNL136      0.0241
   1088 H           9.2696   13.0103   18.8092 H     136  UNL136      0.0241
   1089 CL          8.4701   13.6032   22.8783 Cl    137  UNL137     -0.1257
   1090 C           9.9495   12.6192   22.8783 C.3   137  UNL137      0.0198
   1091 C           9.6061   11.1445   22.8783 C.3   137  UNL137     -0.0517
   1092 H          10.5301   12.8827   21.9897 H     137  UNL137      0.0427
   1093 H          10.5301   12.8827   23.7668 H     137  UNL137      0.0427
   1094 H          10.5214   10.5441   22.8783 H     137  UNL137      0.0241
   1095 H           9.0251   10.8727   23.7657 H     137  UNL137      0.0241
   1096 H           9.0251   10.8727   21.9909 H     137  UNL137      0.0241
   1097 CL         11.8593   12.2830   26.0599 Cl    138  UNL138     -0.1257
   1098 C          10.3168   11.4013   26.0599 C.3   138  UNL138      0.0198
   1099 C           9.1523   12.3691   26.0599 C.3   138  UNL138     -0.0517
   1100 H          10.2922   10.7642   25.1713 H     138  UNL138      0.0427
   1101 H          10.2922   10.7642   26.9484 H     138  UNL138      0.0427
   1102 H           8.2054   11.8198   26.0599 H     138  UNL138      0.0241
   1103 H           9.1696   13.0103   26.9473 H     138  UNL138      0.0241
   1104 H           9.1696   13.0103   25.1725 H     138  UNL138      0.0241
   1105 CL         11.8593   15.8398    0.6065 Cl    139  UNL139     -0.1257
   1106 C          10.3168   14.9581    0.6065 C.3   139  UNL139      0.0198
   1107 C           9.1523   15.9259    0.6065 C.3   139  UNL139     -0.0517
   1108 H          10.2922   14.3210   -0.2821 H     139  UNL139      0.0427
   1109 H          10.2922   14.3210    1.4950 H     139  UNL139      0.0427
   1110 H           8.2054   15.3766    0.6065 H     139  UNL139      0.0241
   1111 H           9.1696   16.5671    1.4939 H     139  UNL139      0.0241
   1112 H           9.1696   16.5671   -0.2809 H     139  UNL139      0.0241
   1113 CL         11.4320   16.7874    3.7882 Cl    140  UNL140     -0.1257
   1114 C          10.5078   15.2700    3.7882 C.3   140  UNL140      0.0198
   1115 C           9.0206   15.5545    3.7882 C.3   140  UNL140     -0.0517
   1116 H          10.7942   14.7004    2.8996 H     140  UNL140      0.0427
   1117 H          10.7942   14.7004    4.6767 H     140  UNL140      0.0427
   1118 H           8.4571   14.6159    3.7882 H     140  UNL140      0.0241
   1119 H           8.7258   16.1242    4.6756 H     140  UNL140      0.0241
   1120 H           8.7258   16.1242    2.9008 H     140  UNL140      0.0241
   1121 CL         11.9593   15.8398    6.9699 Cl    141  UNL141     -0.1257
   1122 C          10.4168   14.9581    6.9699 C.3   141  UNL141      0.0198
   1123 C           9.2523   15.9259    6.9699 C.3   141  UNL141     -0.0517
   1124 H          10.3922   14.3210    6.0813 H     141  UNL141      0.0427
   1125 H          10.3922   14.3210    7.8584 H     141  UNL141      0.0427
   1126 H           8.3054   15.3766    6.9699 H     141  UNL141      0.0241
   1127 H           9.2696   16.5671    7.8573 H     141  UNL141      0.0241
   1128 H           9.2696   16.5671    6.0825 H     141  UNL141      0.0241
   1129 CL         11.9593   15.8398   10.1515 Cl    142  UNL142     -0.1257
   1130 C          10.4168   14.9581   10.1515 C.3   142  UNL142      0.0198
   1131 C           9.2523   15.9259   10.1515 C.3   142  UNL142     -0.0517
   1132 H          10.3922   14.3210    9.2629 H     142  UNL142      0.0427
   1133 H          10.3922   14.3210   11.0400 H     142  UNL142      0.0427
   1134 H           8.3054   15.3766   10.1515 H     142  UNL142      0.0241
   1135 H           9.2696   16.5671   11.0389 H     142  UNL142      0.0241
   1136 H           9.2696   16.5671    9.2641 H     142  UNL142      0.0241
   1137 CL         11.9593   15.8398   13.3332 Cl    143  UNL143     -0.1257
   1138 C          10.4168   14.9581   13.3332 C.3   143  UNL143      0.0198
   1139 C           9.2523   15.9259   13.3332 C.3   143  UNL143     -0.0517
   1140 H          10.3922   14.3210   12.4446 H     143  UNL143      0.0427
   1141 H          10.3922   14.3210   14.2217 H     143  UNL143      0.0427
   1142 H           8.3054   15.3766   13.3332 H     143  UNL143      0.0241
   1143 H           9.2696   16.5671   14.2206 H     143  UNL143      0.0241
   1144 H           9.2696   16.5671   12.4458 H     143  UNL143      0.0241
   1145 CL         11.8593   15.8398   16.5149 Cl    144  UNL144     -0.1257
   1146 C          10.3168   14.9581   16.5149 C.3   144  UNL144      0.0198
   1147 C           9.1523   15.9259   16.5149 C.3   144  UNL144     -0.0517
   1148 H          10.2922   14.3210   15.6263 H     144  UNL144      0.0427
   1149 H          10.2922   14.3210   17.4034 H     144  UNL144      0.0427
   1150 H           8.2054   15.3766   16.5149 H     144  UNL144      0.0241
   1151 H           9.1696   16.5671   17.4023 H     144  UNL144      0.0241
   1152 H           9.1696   16.5671   15.6275 H     144  UNL144      0.0241
   1153 CL         11.4320   16.7874   19.6966 Cl    145  UNL145     -0.1257
   1154 C          10.5078   15.2700   19.6966 C.3   145  UNL145      0.0198
   1155 C           9.0206   15.5545   19.6966 C.3   145  UNL145     -0.0517
   1156 H          10.7942   14.7004   18.8080 H     145  UNL145      0.0427
   1157 H          10.7942   14.7004   20.5851 H     145  UNL145      0.0427
   1158 H           8.4571   14.6159   19.6966 H     145  UNL145      0.0241
   1159 H           8.7258   16.1242   20.5840 H     145  UNL145      0.0241
   1160 H           8.7258   16.1242   18.8092 H     145  UNL145      0.0241
   1161 CL         11.8593   15.8398   22.8783 Cl    146  UNL146     -0.1257
   1162 C          10.3168   14.9581   22.8783 C.3   146  UNL146      0.0198
   1163 C           9.1523   15.9259   22.8783 C.3   146  UNL146     -0.0517
   1164 H          10.2922   14.3210   21.9897 H     146  UNL146      0.0427
   1165 H          10.2922   14.3210   23.7668 H     146  UNL146      0.0427
   1166 H           8.2054   15.3766   22.8783 H     146  UNL146      0.0241
   1167 H           9.1696   16.5671   23.7657 H     146  UNL146      0.0241
   1168 H           9.1696   16.5671   21.9909 H     146  UNL146      0.0241
   1169 CL          8.4701   17.1600   26.0599 Cl    147  UNL147     -0.1257
   1170 C           9.9495   16.1761   26.0599 C.3   147  UNL147      0.0198
   1171 C           9.6061   14.7014   26.0599 C.3   147  UNL147     -0.0517
   1172 H          10.5301   16.4396   25.1713 H     147  UNL147      0.0427
   1173 H          10.5301   16.4396   26.9484 H     147  UNL147      0.0427
   1174 H          10.5214   14.1010   26.0599 H     147  UNL147      0.0241
   1175 H           9.0251   14.4296   26.9473 H     147  UNL147      0.0241
   1176 H           9.0251   14.4296   25.1725 H     147  UNL147      0.0241
   1177 CL         11.8593   19.3967    0.6065 Cl    148  UNL148     -0.1257
   1178 C          10.3168   18.5150    0.6065 C.3   148  UNL148      0.0198
   1179 C           9.1523   19.4828    0.6065 C.3   148  UNL148     -0.0517
   1180 H          10.2922   17.8779   -0.2821 H     148  UNL148      0.0427
   1181 H          10.2922   17.8779    1.4950 H     148  UNL148      0.0427
   1182 H           8.2054   18.9335    0.6065 H     148  UNL148      0.0241
   1183 H           9.1696   20.1240    1.4939 H     148  UNL148      0.0241
   1184 H           9.1696   20.1240   -0.2809 H     148  UNL148      0.0241
   1185 CL         11.8593   19.3967    3.7882 Cl    149  UNL149     -0.1257
   1186 C          10.3168   18.5150    3.7882 C.3   149  UNL149      0.0198
   1187 C           9.1523   19.4828    3.7882 C.3   149  UNL149     -0.0517
   1188 H          10.2922   17.8779    2.8996 H     149  UNL149      0.0427
   1189 H          10.2922   17.8779    4.6767 H     149  UNL149      0.0427
   1190 H           8.2054   18.9335    3.7882 H     149  UNL149      0.0241
   1191 H           9.1696   20.1240    4.6756 H     149  UNL149      0.0241
   1192 H           9.1696   20.1240    2.9008 H     149  UNL149      0.0241
   1193 CL          8.4701   20.7169    6.9699 Cl    150  UNL150     -0.1257
   1194 C           9.9495   19.7330    6.9699 C.3   150  UNL150      0.0198
   1195 C           9.6061   18.2583    6.9699 C.3   150  UNL150     -0.0517
   1196 H          10.5301   19.9965    6.0813 H     150  UNL150      0.0427
   1197 H          10.5301   19.9965    7.8584 H     150  UNL150      0.0427
   1198 H          10.5214   17.6579    6.9699 H     150  UNL150      0.0241
   1199 H           9.0251   17.9865    7.8573 H     150  UNL150      0.0241
   1200 H           9.0251   17.9865    6.0825 H     150  UNL150      0.0241
   1201 CL         11.4320   20.3443   10.1515 Cl    151  UNL151     -0.1257
   1202 C          10.5078   18.8269   10.1515 C.3   151  UNL151      0.0198
   1203 C           9.0206   19.1113   10.1515 C.3   151  UNL151     -0.0517
   1204 H          10.7942   18.2573    9.2629 H     151  UNL151      0.0427
   1205 H          10.7942   18.2573   11.0400 H     151  UNL151      0.0427
   1206 H           8.4571   18.1728   10.1515 H     151  UNL151      0.0241
   1207 H           8.7258   19.6810   11.0389 H     151  UNL151      0.0241
   1208 H           8.7258   19.6810    9.2641 H     151  UNL151      0.0241
   1209 CL          8.4701   20.7169   13.3332 Cl    152  UNL152     -0.1257
   1210 C           9.9495   19.7330   13.3332 C.3   152  UNL152      0.0198
   1211 C           9.6061   18.2583   13.3332 C.3   152  UNL152     -0.0517
   1212 H          10.5301   19.9965   12.4446 H     152  UNL152      0.0427
   1213 H          10.5301   19.9965   14.2217 H     152  UNL152      0.0427
   1214 H          10.5214   17.6579   13.3332 H     152  UNL152      0.0241
   1215 H           9.0251   17.9865   14.2206 H     152  UNL152      0.0241
   1216 H           9.0251   17.9865   12.4458 H     152  UNL152      0.0241
   1217 CL          9.8593   18.8289   16.7995 Cl    153  UNL153     -0.1257
   1218 C           8.3168   19.3566   16.0931 C.3   153  UNL153      0.0198
   1219 C           7.1523   18.7774   16.8684 C.3   153  UNL153     -0.0517
   1220 H           8.2922   20.4497   16.1145 H     153  UNL153      0.0427
   1221 H           8.2922   19.0260   15.0509 H     153  UNL153      0.0427
   1222 H           6.2054   19.1061   16.4284 H     153  UNL153      0.0241
   1223 H           7.1696   17.6827   16.8511 H     153  UNL153      0.0241
   1224 H           7.1696   19.1046   17.9132 H     153  UNL153      0.0241
   1225 CL         11.8593   19.3967   19.6966 Cl    154  UNL154     -0.1257
   1226 C          10.3168   18.5150   19.6966 C.3   154  UNL154      0.0198
   1227 C           9.1523   19.4828   19.6966 C.3   154  UNL154     -0.0517
   1228 H          10.2922   17.8779   18.8080 H     154  UNL154      0.0427
   1229 H          10.2922   17.8779   20.5851 H     154  UNL154      0.0427
   1230 H           8.2054   18.9335   19.6966 H     154  UNL154      0.0241
   1231 H           9.1696   20.1240   20.5840 H     154  UNL154      0.0241
   1232 H           9.1696   20.1240   18.8092 H     154  UNL154      0.0241
   1233 CL          9.8593   18.8289   23.1628 Cl    155  UNL155     -0.1257
   1234 C           8.3168   19.3566   22.4564 C.3   155  UNL155      0.0198
   1235 C           7.1523   18.7774   23.2318 C.3   155  UNL155     -0.0517
   1236 H           8.2922   20.4497   22.4778 H     155  UNL155      0.0427
   1237 H           8.2922   19.0260   21.4143 H     155  UNL155      0.0427
   1238 H           6.2054   19.1061   22.7917 H     155  UNL155      0.0241
   1239 H           7.1696   17.6827   23.2144 H     155  UNL155      0.0241
   1240 H           7.1696   19.1046   24.2766 H     155  UNL155      0.0241
   1241 CL         11.8593   19.3967   26.0599 Cl    156  UNL156     -0.1257
   1242 C          10.3168   18.5150   26.0599 C.3   156  UNL156      0.0198
   1243 C           9.1523   19.4828   26.0599 C.3   156  UNL156     -0.0517
   1244 H          10.2922   17.8779   25.1713 H     156  UNL156      0.0427
   1245 H          10.2922   17.8779   26.9484 H     156  UNL156      0.0427
   1246 H           8.2054   18.9335   26.0599 H     156  UNL156      0.0241
   1247 H           9.1696   20.1240   26.9473 H     156  UNL156      0.0241
   1248 H           9.1696   20.1240   25.1725 H     156  UNL156      0.0241
   1249 CL         17.0624    1.6123    1.7882 Cl    157  UNL157     -0.1257
   1250 C          15.5199    0.7306    1.7882 C.3   157  UNL157      0.0198
   1251 C          14.3554    1.6984    1.7882 C.3   157  UNL157     -0.0517
   1252 H          15.4953    0.0935    0.8996 H     157  UNL157      0.0427
   1253 H          15.4953    0.0935    2.6767 H     157  UNL157      0.0427
   1254 H          13.4085    1.1491    1.7882 H     157  UNL157      0.0241
   1255 H          14.3727    2.3396    2.6756 H     157  UNL157      0.0241
   1256 H          14.3727    2.3396    0.9008 H     157  UNL157      0.0241
   1257 CL         17.1624    1.5123    4.9699 Cl    158  UNL158     -0.1257
   1258 C          15.6199    0.6306    4.9699 C.3   158  UNL158      0.0198
   1259 C          14.4554    1.5984    4.9699 C.3   158  UNL158     -0.0517
   1260 H          15.5953   -0.0065    4.0813 H     158  UNL158      0.0427
   1261 H          15.5953   -0.0065    5.8584 H     158  UNL158      0.0427
   1262 H          13.5085    1.0491    4.9699 H     158  UNL158      0.0241
   1263 H          14.4727    2.2396    5.8573 H     158  UNL158      0.0241
   1264 H          14.4727    2.2396    4.0825 H     158  UNL158      0.0241
   1265 CL         17.0624    1.6123    8.0515 Cl    159  UNL159     -0.1257
   1266 C          15.5199    0.7306    8.0515 C.3   159  UNL159      0.0198
   1267 C          14.3554    1.6984    8.0515 C.3   159  UNL159     -0.0517
   1268 H          15.4953    0.0935    7.1629 H     159  UNL159      0.0427
   1269 H          15.4953    0.0935    8.9400 H     159  UNL159      0.0427
   1270 H          13.4085    1.1491    8.0515 H     159  UNL159      0.0241
   1271 H          14.3727    2.3396    8.9389 H     159  UNL159      0.0241
   1272 H          14.3727    2.3396    7.1641 H     159  UNL159      0.0241
   1273 CL         15.0624    1.0445   10.5486 Cl    160  UNL160     -0.1257
   1274 C          13.5199    1.5722   11.2550 C.3   160  UNL160      0.0198
   1275 C          12.3554    0.9930   10.4796 C.3   160  UNL160     -0.0517
   1276 H          13.4953    1.2416   12.2972 H     160  UNL160      0.0427
   1277 H          13.4953    2.6653   11.2337 H     160  UNL160      0.0427
   1278 H          11.4085    1.3217   10.9197 H     160  UNL160      0.0241
   1279 H          12.3727    1.3202    9.4349 H     160  UNL160      0.0241
   1280 H          12.3727   -0.1017   10.4970 H     160  UNL160      0.0241
   1281 CL         17.1624    0.8334   13.2685 Cl    161  UNL161     -0.1257
   1282 C          15.6199    1.6368   13.6318 C.3   161  UNL161      0.0198
   1283 C          14.4554    0.7550   13.2330 C.3   161  UNL161     -0.0517
   1284 H          15.5953    1.8511   14.7040 H     161  UNL161      0.0427
   1285 H          15.5953    2.5834   13.0849 H     161  UNL161      0.0427
   1286 H          13.5085    1.2555   13.4594 H     161  UNL161      0.0241
   1287 H          14.4727    0.5365   12.1602 H     161  UNL161      0.0241
   1288 H          14.4727   -0.1949   13.7773 H     161  UNL161      0.0241
   1289 CL         14.9624    1.5681   19.8683 Cl    162  UNL162     -0.1257
   1290 C          13.4199    0.7962   19.4421 C.3   162  UNL162      0.0198
   1291 C          12.2554    1.6434   19.9099 C.3   162  UNL162     -0.0517
   1292 H          13.3953    0.6679   18.3563 H     162  UNL162      0.0427
   1293 H          13.3953   -0.1910   19.9120 H     162  UNL162      0.0427
   1294 H          11.3085    1.1626   19.6444 H     162  UNL162      0.0241
   1295 H          12.2727    1.7759   20.9966 H     162  UNL162      0.0241
   1296 H          12.2727    2.6337   19.4429 H     162  UNL162      0.0241
   1297 CL         16.5351    2.5599   22.8783 Cl    163  UNL163     -0.1257
   1298 C          15.6109    1.0425   22.8783 C.3   163  UNL163      0.0198
   1299 C          14.1237    1.3269   22.8783 C.3   163  UNL163     -0.0517
   1300 H          15.8973    0.4729   21.9897 H     163  UNL163      0.0427
   1301 H          15.8973    0.4729   23.7668 H     163  UNL163      0.0427
   1302 H          13.5602    0.3884   22.8783 H     163  UNL163      0.0241
   1303 H          13.8289    1.8966   23.7657 H     163  UNL163      0.0241
   1304 H          13.8289    1.8966   21.9909 H     163  UNL163      0.0241
   1305 CL         17.0624    1.6123   26.0599 Cl    164  UNL164     -0.1257
   1306 C          15.5199    0.7306   26.0599 C.3   164  UNL164      0.0198
   1307 C          14.3554    1.6984   26.0599 C.3   164  UNL164     -0.0517
   1308 H          15.4953    0.0935   25.1713 H     164  UNL164      0.0427
   1309 H          15.4953    0.0935   26.9484 H     164  UNL164      0.0427
   1310 H          13.4085    1.1491   26.0599 H     164  UNL164      0.0241
   1311 H          14.3727    2.3396   26.9473 H     164  UNL164      0.0241
   1312 H          14.3727    2.3396   25.1725 H     164  UNL164      0.0241
   1313 CL         17.0624    5.1692    0.6065 Cl    165  UNL165     -0.1257
   1314 C          15.5199    4.2875    0.6065 C.3   165  UNL165      0.0198
   1315 C          14.3554    5.2553    0.6065 C.3   165  UNL165     -0.0517
   1316 H          15.4953    3.6504   -0.2821 H     165  UNL165      0.0427
   1317 H          15.4953    3.6504    1.4950 H     165  UNL165      0.0427
   1318 H          13.4085    4.7060    0.6065 H     165  UNL165      0.0241
   1319 H          14.3727    5.8965    1.4939 H     165  UNL165      0.0241
   1320 H          14.3727    5.8965   -0.2809 H     165  UNL165      0.0241
   1321 CL         15.7700    3.0573    4.1770 Cl    166  UNL166     -0.1257
   1322 C          15.5725    4.8208    4.0877 C.3   166  UNL166      0.0198
   1323 C          14.2311    5.1745    3.4809 C.3   166  UNL166     -0.0517
   1324 H          15.6579    5.2217    5.1016 H     166  UNL166      0.0427
   1325 H          16.3903    5.2217    3.4824 H     166  UNL166      0.0427
   1326 H          14.1157    6.2619    3.4287 H     166  UNL166      0.0241
   1327 H          14.1382    4.7769    2.4650 H     166  UNL166      0.0241
   1328 H          13.4067    4.7769    4.0820 H     166  UNL166      0.0241
   1329 CL         15.0624    4.6014    7.2544 Cl    167  UNL167     -0.1257
   1330 C          13.5199    5.1290    6.5480 C.3   167  UNL167      0.0198
   1331 C          12.3554    4.5498    7.3234 C.3   167  UNL167     -0.0517
   1332 H          13.4953    6.2222    6.5694 H     167  UNL167      0.0427
   1333 H          13.4953    4.7985    5.5059 H     167  UNL167      0.0427
   1334 H          11.4085    4.8786    6.8833 H     167  UNL167      0.0241
   1335 H          12.3727    3.4552    7.3060 H     167  UNL167      0.0241
   1336 H          12.3727    4.8771    8.3682 H     167  UNL167      0.0241
   1337 CL         13.0405    5.2692   11.0972 Cl    168  UNL168     -0.1257
   1338 C          14.4460    4.3875   10.4615 C.3   168  UNL168      0.0198
   1339 C          15.5070    5.3553    9.9816 C.3   168  UNL168     -0.0517
   1340 H          14.8346    3.7504   11.2610 H     168  UNL168      0.0427
   1341 H          14.1022    3.7504    9.6419 H     168  UNL168      0.0427
   1342 H          16.3697    4.8060    9.5914 H     168  UNL168      0.0241
   1343 H          15.1255    5.9965    9.1802 H     168  UNL168      0.0241
   1344 H          15.8569    5.9965   10.7973 H     168  UNL168      0.0241
   1345 CL         16.6351    6.1168   13.3332 Cl    169  UNL169     -0.1257
   1346 C          15.7109    4.5994   13.3332 C.3   169  UNL169      0.0198
   1347 C          14.2237    4.8838   13.3332 C.3   169  UNL169     -0.0517
   1348 H          15.9973    4.0298   12.4446 H     169  UNL169      0.0427
   1349 H          15.9973    4.0298   14.2217 H     169  UNL169      0.0427
   1350 H          13.6602    3.9453   13.3332 H     169  UNL169      0.0241
   1351 H          13.9289    5.4535   14.2206 H     169  UNL169      0.0241
   1352 H          13.9289    5.4535   12.4458 H     169  UNL169      0.0241
   1353 CL         15.0624    5.1692   16.5149 Cl    170  UNL170     -0.1257
   1354 C          13.5199    4.2875   16.5149 C.3   170  UNL170      0.0198
   1355 C          12.3554    5.2553   16.5149 C.3   170  UNL170     -0.0517
   1356 H          13.4953    3.6504   15.6263 H     170  UNL170      0.0427
   1357 H          13.4953    3.6504   17.4034 H     170  UNL170      0.0427
   1358 H          11.4085    4.7060   16.5149 H     170  UNL170      0.0241
   1359 H          12.3727    5.8965   17.4023 H     170  UNL170      0.0241
   1360 H          12.3727    5.8965   15.6275 H     170  UNL170      0.0241
   1361 CL         17.0624    5.1692   19.6966 Cl    171  UNL171     -0.1257
   1362 C          15.5199    4.2875   19.6966 C.3   171  UNL171      0.0198
   1363 C          14.3554    5.2553   19.6966 C.3   171  UNL171     -0.0517
   1364 H          15.4953    3.6504   18.8080 H     171  UNL171      0.0427
   1365 H          15.4953    3.6504   20.5851 H     171  UNL171      0.0427
   1366 H          13.4085    4.7060   19.6966 H     171  UNL171      0.0241
   1367 H          14.3727    5.8965   20.5840 H     171  UNL171      0.0241
   1368 H          14.3727    5.8965   18.8092 H     171  UNL171      0.0241
   1369 CL         17.0624    5.1692   22.8783 Cl    172  UNL172     -0.1257
   1370 C          15.5199    4.2875   22.8783 C.3   172  UNL172      0.0198
   1371 C          14.3554    5.2553   22.8783 C.3   172  UNL172     -0.0517
   1372 H          15.4953    3.6504   21.9897 H     172  UNL172      0.0427
   1373 H          15.4953    3.6504   23.7668 H     172  UNL172      0.0427
   1374 H          13.4085    4.7060   22.8783 H     172  UNL172      0.0241
   1375 H          14.3727    5.8965   23.7657 H     172  UNL172      0.0241
   1376 H          14.3727    5.8965   21.9909 H     172  UNL172      0.0241
   1377 CL         16.6351    6.1168   26.0599 Cl    173  UNL173     -0.1257
   1378 C          15.7109    4.5994   26.0599 C.3   173  UNL173      0.0198
   1379 C          14.2237    4.8838   26.0599 C.3   173  UNL173     -0.0517
   1380 H          15.9973    4.0298   25.1713 H     173  UNL173      0.0427
   1381 H          15.9973    4.0298   26.9484 H     173  UNL173      0.0427
   1382 H          13.6602    3.9453   26.0599 H     173  UNL173      0.0241
   1383 H          13.9289    5.4535   26.9473 H     173  UNL173      0.0241
   1384 H          13.9289    5.4535   25.1725 H     173  UNL173      0.0241
   1385 CL         17.0624    8.7261    1.6882 Cl    174  UNL174     -0.1257
   1386 C          15.5199    7.8444    1.6882 C.3   174  UNL174      0.0198
   1387 C          14.3554    8.8122    1.6882 C.3   174  UNL174     -0.0517
   1388 H          15.4953    7.2073    0.7996 H     174  UNL174      0.0427
   1389 H          15.4953    7.2073    2.5767 H     174  UNL174      0.0427
   1390 H          13.4085    8.2629    1.6882 H     174  UNL174      0.0241
   1391 H          14.3727    9.4534    2.5756 H     174  UNL174      0.0241
   1392 H          14.3727    9.4534    0.8008 H     174  UNL174      0.0241
   1393 CL         17.4624    8.6261    5.0699 Cl    175  UNL175     -0.1257
   1394 C          15.9199    7.7444    5.0699 C.3   175  UNL175      0.0198
   1395 C          14.7554    8.7122    5.0699 C.3   175  UNL175     -0.0517
   1396 H          15.8953    7.1073    4.1813 H     175  UNL175      0.0427
   1397 H          15.8953    7.1073    5.9584 H     175  UNL175      0.0427
   1398 H          13.8085    8.1629    5.0699 H     175  UNL175      0.0241
   1399 H          14.7727    9.3534    5.9573 H     175  UNL175      0.0241
   1400 H          14.7727    9.3534    4.1825 H     175  UNL175      0.0241
   1401 CL         17.0624    8.7261    8.1515 Cl    176  UNL176     -0.1257
   1402 C          15.5199    7.8444    8.1515 C.3   176  UNL176      0.0198
   1403 C          14.3554    8.8122    8.1515 C.3   176  UNL176     -0.0517
   1404 H          15.4953    7.2073    7.2629 H     176  UNL176      0.0427
   1405 H          15.4953    7.2073    9.0400 H     176  UNL176      0.0427
   1406 H          13.4085    8.2629    8.1515 H     176  UNL176      0.0241
   1407 H          14.3727    9.4534    9.0389 H     176  UNL176      0.0241
   1408 H          14.3727    9.4534    7.2641 H     176  UNL176      0.0241
   1409 CL         16.4624    8.7261   11.2332 Cl    177  UNL177     -0.1257
   1410 C          14.9199    7.8444   11.2332 C.3   177  UNL177      0.0198
   1411 C          13.7554    8.8122   11.2332 C.3   177  UNL177     -0.0517
   1412 H          14.8953    7.2073   10.3446 H     177  UNL177      0.0427
   1413 H          14.8953    7.2073   12.1217 H     177  UNL177      0.0427
   1414 H          12.8085    8.2629   11.2332 H     177  UNL177      0.0241
   1415 H          13.7727    9.4534   12.1206 H     177  UNL177      0.0241
   1416 H          13.7727    9.4534   10.3458 H     177  UNL177      0.0241
   1417 CL         17.1624    8.6261   15.5149 Cl    178  UNL178     -0.1257
   1418 C          15.6199    7.7444   15.5149 C.3   178  UNL178      0.0198
   1419 C          14.4554    8.7122   15.5149 C.3   178  UNL178     -0.0517
   1420 H          15.5953    7.1073   14.6263 H     178  UNL178      0.0427
   1421 H          15.5953    7.1073   16.4034 H     178  UNL178      0.0427
   1422 H          13.5085    8.1629   15.5149 H     178  UNL178      0.0241
   1423 H          14.4727    9.3534   16.4023 H     178  UNL178      0.0241
   1424 H          14.4727    9.3534   14.6275 H     178  UNL178      0.0241
   1425 CL         15.9624    8.7261   17.8966 Cl    179  UNL179     -0.1257
   1426 C          14.4199    7.8444   17.8966 C.3   179  UNL179      0.0198
   1427 C          13.2554    8.8122   17.8966 C.3   179  UNL179     -0.0517
   1428 H          14.3953    7.2073   17.0080 H     179  UNL179      0.0427
   1429 H          14.3953    7.2073   18.7851 H     179  UNL179      0.0427
   1430 H          12.3085    8.2629   17.8966 H     179  UNL179      0.0241
   1431 H          13.2727    9.4534   18.7840 H     179  UNL179      0.0241
   1432 H          13.2727    9.4534   17.0092 H     179  UNL179      0.0241
   1433 CL         17.1624    8.6261   19.7783 Cl    180  UNL180     -0.1257
   1434 C          15.6199    7.7444   19.7783 C.3   180  UNL180      0.0198
   1435 C          14.4554    8.7122   19.7783 C.3   180  UNL180     -0.0517
   1436 H          15.5953    7.1073   18.8897 H     180  UNL180      0.0427
   1437 H          15.5953    7.1073   20.6668 H     180  UNL180      0.0427
   1438 H          13.5085    8.1629   19.7783 H     180  UNL180      0.0241
   1439 H          14.4727    9.3534   20.6657 H     180  UNL180      0.0241
   1440 H          14.4727    9.3534   18.8909 H     180  UNL180      0.0241
   1441 CL         17.0624    8.7261   24.0599 Cl    181  UNL181     -0.1257
   1442 C          15.5199    7.8444   24.0599 C.3   181  UNL181      0.0198
   1443 C          14.3554    8.8122   24.0599 C.3   181  UNL181     -0.0517
   1444 H          15.4953    7.2073   23.1713 H     181  UNL181      0.0427
   1445 H          15.4953    7.2073   24.9484 H     181  UNL181      0.0427
   1446 H          13.4085    8.2629   24.0599 H     181  UNL181      0.0241
   1447 H          14.3727    9.4534   24.9473 H     181  UNL181      0.0241
   1448 H          14.3727    9.4534   23.1725 H     181  UNL181      0.0241
   1449 CL         17.0624    8.7261   27.2416 Cl    182  UNL182     -0.1257
   1450 C          15.5199    7.8444   27.2416 C.3   182  UNL182      0.0198
   1451 C          14.3554    8.8122   27.2416 C.3   182  UNL182     -0.0517
   1452 H          15.4953    7.2073   26.3530 H     182  UNL182      0.0427
   1453 H          15.4953    7.2073   28.1301 H     182  UNL182      0.0427
   1454 H          13.4085    8.2629   27.2416 H     182  UNL182      0.0241
   1455 H          14.3727    9.4534   28.1290 H     182  UNL182      0.0241
   1456 H          14.3727    9.4534   26.3542 H     182  UNL182      0.0241
   1457 CL         15.0624   11.7152    0.3219 Cl    183  UNL183     -0.1257
   1458 C          13.5199   12.2428    1.0283 C.3   183  UNL183      0.0198
   1459 C          12.3554   11.6636    0.2529 C.3   183  UNL183     -0.0517
   1460 H          13.4953   11.9122    2.0705 H     183  UNL183      0.0427
   1461 H          13.4953   13.3359    1.0069 H     183  UNL183      0.0427
   1462 H          11.4085   11.9924    0.6930 H     183  UNL183      0.0241
   1463 H          12.3727   11.9908   -0.7919 H     183  UNL183      0.0241
   1464 H          12.3727   10.5690    0.2703 H     183  UNL183      0.0241
   1465 CL         16.6351   13.3305    3.7882 Cl    184  UNL184     -0.1257
   1466 C          15.7109   11.8131    3.7882 C.3   184  UNL184      0.0198
   1467 C          14.2237   12.0976    3.7882 C.3   184  UNL184     -0.0517
   1468 H          15.9973   11.2435    2.8996 H     184  UNL184      0.0427
   1469 H          15.9973   11.2435    4.6767 H     184  UNL184      0.0427
   1470 H          13.6602   11.1590    3.7882 H     184  UNL184      0.0241
   1471 H          13.9289   12.6673    4.6756 H     184  UNL184      0.0241
   1472 H          13.9289   12.6673    2.9008 H     184  UNL184      0.0241
   1473 CL         15.0624   12.2387    6.7982 Cl    185  UNL185     -0.1257
   1474 C          13.5199   11.4668    7.2243 C.3   185  UNL185      0.0198
   1475 C          12.3554   12.3141    6.7566 C.3   185  UNL185     -0.0517
   1476 H          13.4953   10.4796    6.7543 H     185  UNL185      0.0427
   1477 H          13.4953   11.3385    8.3101 H     185  UNL185      0.0427
   1478 H          11.4085   11.8332    7.0220 H     185  UNL185      0.0241
   1479 H          12.3727   13.3043    7.2235 H     185  UNL185      0.0241
   1480 H          12.3727   12.4465    5.6698 H     185  UNL185      0.0241
   1481 CL         17.0624   12.2830   10.1515 Cl    186  UNL186     -0.1257
   1482 C          15.5199   11.4013   10.1515 C.3   186  UNL186      0.0198
   1483 C          14.3554   12.3691   10.1515 C.3   186  UNL186     -0.0517
   1484 H          15.4953   10.7642    9.2629 H     186  UNL186      0.0427
   1485 H          15.4953   10.7642   11.0400 H     186  UNL186      0.0427
   1486 H          13.4085   11.8198   10.1515 H     186  UNL186      0.0241
   1487 H          14.3727   13.0103   11.0389 H     186  UNL186      0.0241
   1488 H          14.3727   13.0103    9.2641 H     186  UNL186      0.0241
   1489 CL         16.6351   13.2305   13.3332 Cl    187  UNL187     -0.1257
   1490 C          15.7109   11.7131   13.3332 C.3   187  UNL187      0.0198
   1491 C          14.2237   11.9976   13.3332 C.3   187  UNL187     -0.0517
   1492 H          15.9973   11.1435   12.4446 H     187  UNL187      0.0427
   1493 H          15.9973   11.1435   14.2217 H     187  UNL187      0.0427
   1494 H          13.6602   11.0590   13.3332 H     187  UNL187      0.0241
   1495 H          13.9289   12.5673   14.2206 H     187  UNL187      0.0241
   1496 H          13.9289   12.5673   12.4458 H     187  UNL187      0.0241
   1497 CL         14.9624   11.7151   16.7995 Cl    188  UNL188     -0.1257
   1498 C          13.4199   12.2428   16.0931 C.3   188  UNL188      0.0198
   1499 C          12.2554   11.6636   16.8684 C.3   188  UNL188     -0.0517
   1500 H          13.3953   13.3360   16.1145 H     188  UNL188      0.0427
   1501 H          13.3953   11.9123   15.0509 H     188  UNL188      0.0427
   1502 H          11.3085   11.9923   16.4284 H     188  UNL188      0.0241
   1503 H          12.2727   10.5689   16.8511 H     188  UNL188      0.0241
   1504 H          12.2727   11.9908   17.9132 H     188  UNL188      0.0241
   1505 CL         16.6351   13.2305   19.6966 Cl    189  UNL189     -0.1257
   1506 C          15.7109   11.7131   19.6966 C.3   189  UNL189      0.0198
   1507 C          14.2237   11.9976   19.6966 C.3   189  UNL189     -0.0517
   1508 H          15.9973   11.1435   18.8080 H     189  UNL189      0.0427
   1509 H          15.9973   11.1435   20.5851 H     189  UNL189      0.0427
   1510 H          13.6602   11.0590   19.6966 H     189  UNL189      0.0241
   1511 H          13.9289   12.5673   20.5840 H     189  UNL189      0.0241
   1512 H          13.9289   12.5673   18.8092 H     189  UNL189      0.0241
   1513 CL         15.0624   12.0042   22.5313 Cl    190  UNL190     -0.1257
   1514 C          13.5199   11.8145   23.3924 C.3   190  UNL190      0.0198
   1515 C          12.3554   12.0227   22.4473 C.3   190  UNL190     -0.0517
   1516 H          13.4953   10.8097   23.8234 H     190  UNL190      0.0427
   1517 H          13.4953   12.5452   24.2057 H     190  UNL190      0.0427
   1518 H          11.4085   11.9045   22.9837 H     190  UNL190      0.0241
   1519 H          12.3727   13.0272   22.0119 H     190  UNL190      0.0241
   1520 H          12.3727   11.2940   21.6302 H     190  UNL190      0.0241
   1521 CL         17.0624   12.2830   26.0599 Cl    191  UNL191     -0.1257
   1522 C          15.5199   11.4013   26.0599 C.3   191  UNL191      0.0198
   1523 C          14.3554   12.3691   26.0599 C.3   191  UNL191     -0.0517
   1524 H          15.4953   10.7642   25.1713 H     191  UNL191      0.0427
   1525 H          15.4953   10.7642   26.9484 H     191  UNL191      0.0427
   1526 H          13.4085   11.8198   26.0599 H     191  UNL191      0.0241
   1527 H          14.3727   13.0103   26.9473 H     191  UNL191      0.0241
   1528 H          14.3727   13.0103   25.1725 H     191  UNL191      0.0241
   1529 CL         13.0941   15.9067    1.8882 Cl    192  UNL192     -0.1257
   1530 C          14.8629   16.0743    1.8882 C.3   192  UNL192      0.0198
   1531 C          15.5251   14.7126    1.8882 C.3   192  UNL192     -0.0517
   1532 H          15.1479   16.6447    0.9996 H     192  UNL192      0.0427
   1533 H          15.1479   16.6447    2.7767 H     192  UNL192      0.0427
   1534 H          16.6142   14.8229    1.8882 H     192  UNL192      0.0241
   1535 H          15.2451   14.1355    2.7756 H     192  UNL192      0.0241
   1536 H          15.2451   14.1355    1.0008 H     192  UNL192      0.0241
   1537 CL         13.0941   15.9067    5.0699 Cl    193  UNL193     -0.1257
   1538 C          14.8629   16.0743    5.0699 C.3   193  UNL193      0.0198
   1539 C          15.5251   14.7126    5.0699 C.3   193  UNL193     -0.0517
   1540 H          15.1479   16.6447    4.1813 H     193  UNL193      0.0427
   1541 H          15.1479   16.6447    5.9584 H     193  UNL193      0.0427
   1542 H          16.6142   14.8229    5.0699 H     193  UNL193      0.0241
   1543 H          15.2451   14.1355    5.9573 H     193  UNL193      0.0241
   1544 H          15.2451   14.1355    4.1825 H     193  UNL193      0.0241
   1545 CL         17.0624   15.8398    8.1515 Cl    194  UNL194     -0.1257
   1546 C          15.5199   14.9581    8.1515 C.3   194  UNL194      0.0198
   1547 C          14.3554   15.9259    8.1515 C.3   194  UNL194     -0.0517
   1548 H          15.4953   14.3210    7.2629 H     194  UNL194      0.0427
   1549 H          15.4953   14.3210    9.0400 H     194  UNL194      0.0427
   1550 H          13.4085   15.3766    8.1515 H     194  UNL194      0.0241
   1551 H          14.3727   16.5671    9.0389 H     194  UNL194      0.0241
   1552 H          14.3727   16.5671    7.2641 H     194  UNL194      0.0241
   1553 CL         17.0624   15.8398   11.3332 Cl    195  UNL195     -0.1257
   1554 C          15.5199   14.9581   11.3332 C.3   195  UNL195      0.0198
   1555 C          14.3554   15.9259   11.3332 C.3   195  UNL195     -0.0517
   1556 H          15.4953   14.3210   10.4446 H     195  UNL195      0.0427
   1557 H          15.4953   14.3210   12.2217 H     195  UNL195      0.0427
   1558 H          13.4085   15.3766   11.3332 H     195  UNL195      0.0241
   1559 H          14.3727   16.5671   12.2206 H     195  UNL195      0.0241
   1560 H          14.3727   16.5671   10.4458 H     195  UNL195      0.0241
   1561 CL         17.0624   15.8398   14.5149 Cl    196  UNL196     -0.1257
   1562 C          15.5199   14.9581   14.5149 C.3   196  UNL196      0.0198
   1563 C          14.3554   15.9259   14.5149 C.3   196  UNL196     -0.0517
   1564 H          15.4953   14.3210   13.6263 H     196  UNL196      0.0427
   1565 H          15.4953   14.3210   15.4034 H     196  UNL196      0.0427
   1566 H          13.4085   15.3766   14.5149 H     196  UNL196      0.0241
   1567 H          14.3727   16.5671   15.4023 H     196  UNL196      0.0241
   1568 H          14.3727   16.5671   13.6275 H     196  UNL196      0.0241
   1569 CL         17.0624   15.8398   17.5966 Cl    197  UNL197     -0.1257
   1570 C          15.5199   14.9581   17.5966 C.3   197  UNL197      0.0198
   1571 C          14.3554   15.9259   17.5966 C.3   197  UNL197     -0.0517
   1572 H          15.4953   14.3210   16.7080 H     197  UNL197      0.0427
   1573 H          15.4953   14.3210   18.4851 H     197  UNL197      0.0427
   1574 H          13.4085   15.3766   17.5966 H     197  UNL197      0.0241
   1575 H          14.3727   16.5671   18.4840 H     197  UNL197      0.0241
   1576 H          14.3727   16.5671   16.7092 H     197  UNL197      0.0241
   1577 CL         17.1624   15.7398   21.9783 Cl    198  UNL198     -0.1257
   1578 C          15.6199   14.8581   21.9783 C.3   198  UNL198      0.0198
   1579 C          14.4554   15.8259   21.9783 C.3   198  UNL198     -0.0517
   1580 H          15.5953   14.2210   21.0897 H     198  UNL198      0.0427
   1581 H          15.5953   14.2210   22.8668 H     198  UNL198      0.0427
   1582 H          13.5085   15.2766   21.9783 H     198  UNL198      0.0241
   1583 H          14.4727   16.4671   22.8657 H     198  UNL198      0.0241
   1584 H          14.4727   16.4671   21.0909 H     198  UNL198      0.0241
   1585 CL         15.0624   15.7343   25.9974 Cl    199  UNL199     -0.1257
   1586 C          13.5199   14.8664   26.1526 C.3   199  UNL199      0.0198
   1587 C          12.3554   15.8190   25.9822 C.3   199  UNL199     -0.0517
   1588 H          13.4953   14.0828   25.3901 H     199  UNL199      0.0427
   1589 H          13.4953   14.3956   27.1394 H     199  UNL199      0.0427
   1590 H          11.4085   15.2783   26.0789 H     199  UNL199      0.0241
   1591 H          12.3727   16.6065   26.7429 H     199  UNL199      0.0241
   1592 H          12.3727   16.2940   24.9958 H     199  UNL199      0.0241
   1593 CL         16.6351   20.3443    0.6065 Cl    200  UNL200     -0.1257
   1594 C          15.7109   18.8269    0.6065 C.3   200  UNL200      0.0198
   1595 C          14.2237   19.1113    0.6065 C.3   200  UNL200     -0.0517
   1596 H          15.9973   18.2573   -0.2821 H     200  UNL200      0.0427
   1597 H          15.9973   18.2573    1.4950 H     200  UNL200      0.0427
   1598 H          13.6602   18.1728    0.6065 H     200  UNL200      0.0241
   1599 H          13.9289   19.6810    1.4939 H     200  UNL200      0.0241
   1600 H          13.9289   19.6810   -0.2809 H     200  UNL200      0.0241
   1601 CL         16.6351   20.3443    3.7882 Cl    201  UNL201     -0.1257
   1602 C          15.7109   18.8269    3.7882 C.3   201  UNL201      0.0198
   1603 C          14.2237   19.1113    3.7882 C.3   201  UNL201     -0.0517
   1604 H          15.9973   18.2573    2.8996 H     201  UNL201      0.0427
   1605 H          15.9973   18.2573    4.6767 H     201  UNL201      0.0427
   1606 H          13.6602   18.1728    3.7882 H     201  UNL201      0.0241
   1607 H          13.9289   19.6810    4.6756 H     201  UNL201      0.0241
   1608 H          13.9289   19.6810    2.9008 H     201  UNL201      0.0241
   1609 CL         14.9624   18.8289    7.2544 Cl    202  UNL202     -0.1257
   1610 C          13.4199   19.3566    6.5480 C.3   202  UNL202      0.0198
   1611 C          12.2554   18.7774    7.3234 C.3   202  UNL202     -0.0517
   1612 H          13.3953   20.4497    6.5694 H     202  UNL202      0.0427
   1613 H          13.3953   19.0260    5.5059 H     202  UNL202      0.0427
   1614 H          11.3085   19.1061    6.8833 H     202  UNL202      0.0241
   1615 H          12.2727   17.6827    7.3060 H     202  UNL202      0.0241
   1616 H          12.2727   19.1046    8.3682 H     202  UNL202      0.0241
   1617 CL         17.1624   19.3967   10.1515 Cl    203  UNL203     -0.1257
   1618 C          15.6199   18.5150   10.1515 C.3   203  UNL203      0.0198
   1619 C          14.4554   19.4828   10.1515 C.3   203  UNL203     -0.0517
   1620 H          15.5953   17.8779    9.2629 H     203  UNL203      0.0427
   1621 H          15.5953   17.8779   11.0400 H     203  UNL203      0.0427
   1622 H          13.5085   18.9335   10.1515 H     203  UNL203      0.0241
   1623 H          14.4727   20.1240   11.0389 H     203  UNL203      0.0241
   1624 H          14.4727   20.1240    9.2641 H     203  UNL203      0.0241
   1625 CL         15.0624   18.8289   13.0486 Cl    204  UNL204     -0.1257
   1626 C          13.5199   19.3566   13.7550 C.3   204  UNL204      0.0198
   1627 C          12.3554   18.7774   12.9796 C.3   204  UNL204     -0.0517
   1628 H          13.4953   19.0260   14.7972 H     204  UNL204      0.0427
   1629 H          13.4953   20.4497   13.7337 H     204  UNL204      0.0427
   1630 H          11.4085   19.1061   13.4197 H     204  UNL204      0.0241
   1631 H          12.3727   19.1046   11.9349 H     204  UNL204      0.0241
   1632 H          12.3727   17.6827   12.9970 H     204  UNL204      0.0241
   1633 CL         13.0405   19.4967   17.4606 Cl    205  UNL205     -0.1257
   1634 C          14.4460   18.6150   16.8249 C.3   205  UNL205      0.0198
   1635 C          15.5070   19.5828   16.3450 C.3   205  UNL205     -0.0517
   1636 H          14.8346   17.9779   17.6244 H     205  UNL205      0.0427
   1637 H          14.1022   17.9779   16.0052 H     205  UNL205      0.0427
   1638 H          16.3697   19.0335   15.9548 H     205  UNL205      0.0241
   1639 H          15.1255   20.2240   15.5436 H     205  UNL205      0.0241
   1640 H          15.8569   20.2240   17.1607 H     205  UNL205      0.0241
   1641 CL         16.6351   20.3443   19.6966 Cl    206  UNL206     -0.1257
   1642 C          15.7109   18.8269   19.6966 C.3   206  UNL206      0.0198
   1643 C          14.2237   19.1113   19.6966 C.3   206  UNL206     -0.0517
   1644 H          15.9973   18.2573   18.8080 H     206  UNL206      0.0427
   1645 H          15.9973   18.2573   20.5851 H     206  UNL206      0.0427
   1646 H          13.6602   18.1728   19.6966 H     206  UNL206      0.0241
   1647 H          13.9289   19.6810   20.5840 H     206  UNL206      0.0241
   1648 H          13.9289   19.6810   18.8092 H     206  UNL206      0.0241
   1649 CL         13.0405   19.4967   23.8240 Cl    207  UNL207     -0.1257
   1650 C          14.4460   18.6150   23.1883 C.3   207  UNL207      0.0198
   1651 C          15.5070   19.5828   22.7083 C.3   207  UNL207     -0.0517
   1652 H          14.8346   17.9779   23.9878 H     207  UNL207      0.0427
   1653 H          14.1022   17.9779   22.3686 H     207  UNL207      0.0427
   1654 H          16.3697   19.0335   22.3181 H     207  UNL207      0.0241
   1655 H          15.1255   20.2240   21.9069 H     207  UNL207      0.0241
   1656 H          15.8569   20.2240   23.5240 H     207  UNL207      0.0241
   1657 CL         16.6351   20.3443   26.0599 Cl    208  UNL208     -0.1257
   1658 C          15.7109   18.8269   26.0599 C.3   208  UNL208      0.0198
   1659 C          14.2237   19.1113   26.0599 C.3   208  UNL208     -0.0517
   1660 H          15.9973   18.2573   25.1713 H     208  UNL208      0.0427
   1661 H          15.9973   18.2573   26.9484 H     208  UNL208      0.0427
   1662 H          13.6602   18.1728   26.0599 H     208  UNL208      0.0241
   1663 H          13.9289   19.6810   26.9473 H     208  UNL208      0.0241
   1664 H          13.9289   19.6810   25.1725 H     208  UNL208      0.0241
   1665 CL         22.2655    1.6123    0.6065 Cl    209  UNL209     -0.1257
   1666 C          20.7230    0.7306    0.6065 C.3   209  UNL209      0.0198
   1667 C          19.5585    1.6984    0.6065 C.3   209  UNL209     -0.0517
   1668 H          20.6984    0.0935   -0.2821 H     209  UNL209      0.0427
   1669 H          20.6984    0.0935    1.4950 H     209  UNL209      0.0427
   1670 H          18.6116    1.1491    0.6065 H     209  UNL209      0.0241
   1671 H          19.5758    2.3396    1.4939 H     209  UNL209      0.0241
   1672 H          19.5758    2.3396   -0.2809 H     209  UNL209      0.0241
   1673 CL         21.8383    2.5599    3.7882 Cl    210  UNL210     -0.1257
   1674 C          20.9140    1.0425    3.7882 C.3   210  UNL210      0.0198
   1675 C          19.4268    1.3269    3.7882 C.3   210  UNL210     -0.0517
   1676 H          21.2004    0.4729    2.8996 H     210  UNL210      0.0427
   1677 H          21.2004    0.4729    4.6767 H     210  UNL210      0.0427
   1678 H          18.8633    0.3884    3.7882 H     210  UNL210      0.0241
   1679 H          19.1321    1.8966    4.6756 H     210  UNL210      0.0241
   1680 H          19.1321    1.8966    2.9008 H     210  UNL210      0.0241
   1681 CL         22.2655    1.6123    6.9699 Cl    211  UNL211     -0.1257
   1682 C          20.7230    0.7306    6.9699 C.3   211  UNL211      0.0198
   1683 C          19.5585    1.6984    6.9699 C.3   211  UNL211     -0.0517
   1684 H          20.6984    0.0935    6.0813 H     211  UNL211      0.0427
   1685 H          20.6984    0.0935    7.8584 H     211  UNL211      0.0427
   1686 H          18.6116    1.1491    6.9699 H     211  UNL211      0.0241
   1687 H          19.5758    2.3396    7.8573 H     211  UNL211      0.0241
   1688 H          19.5758    2.3396    6.0825 H     211  UNL211      0.0241
   1689 CL         22.2655    1.6123   10.1515 Cl    212  UNL212     -0.1257
   1690 C          20.7230    0.7306   10.1515 C.3   212  UNL212      0.0198
   1691 C          19.5585    1.6984   10.1515 C.3   212  UNL212     -0.0517
   1692 H          20.6984    0.0935    9.2629 H     212  UNL212      0.0427
   1693 H          20.6984    0.0935   11.0400 H     212  UNL212      0.0427
   1694 H          18.6116    1.1491   10.1515 H     212  UNL212      0.0241
   1695 H          19.5758    2.3396   11.0389 H     212  UNL212      0.0241
   1696 H          19.5758    2.3396    9.2641 H     212  UNL212      0.0241
   1697 CL         22.2655    1.6123   13.3332 Cl    213  UNL213     -0.1257
   1698 C          20.7230    0.7306   13.3332 C.3   213  UNL213      0.0198
   1699 C          19.5585    1.6984   13.3332 C.3   213  UNL213     -0.0517
   1700 H          20.6984    0.0935   12.4446 H     213  UNL213      0.0427
   1701 H          20.6984    0.0935   14.2217 H     213  UNL213      0.0427
   1702 H          18.6116    1.1491   13.3332 H     213  UNL213      0.0241
   1703 H          19.5758    2.3396   14.2206 H     213  UNL213      0.0241
   1704 H          19.5758    2.3396   12.4458 H     213  UNL213      0.0241
   1705 CL         22.2655   -0.3877   16.5149 Cl    214  UNL214     -0.1257
   1706 C          20.7230   -1.2694   16.5149 C.3   214  UNL214      0.0198
   1707 C          19.5585   -0.3016   16.5149 C.3   214  UNL214     -0.0517
   1708 H          20.6984   -1.9065   15.6263 H     214  UNL214      0.0427
   1709 H          20.6984   -1.9065   17.4034 H     214  UNL214      0.0427
   1710 H          18.6116   -0.8509   16.5149 H     214  UNL214      0.0241
   1711 H          19.5758    0.3396   17.4023 H     214  UNL214      0.0241
   1712 H          19.5758    0.3396   15.6275 H     214  UNL214      0.0241
   1713 CL         22.3655    1.6123   19.6966 Cl    215  UNL215     -0.1257
   1714 C          20.8230    0.7306   19.6966 C.3   215  UNL215      0.0198
   1715 C          19.6585    1.6984   19.6966 C.3   215  UNL215     -0.0517
   1716 H          20.7984    0.0935   18.8080 H     215  UNL215      0.0427
   1717 H          20.7984    0.0935   20.5851 H     215  UNL215      0.0427
   1718 H          18.7116    1.1491   19.6966 H     215  UNL215      0.0241
   1719 H          19.6758    2.3396   20.5840 H     215  UNL215      0.0241
   1720 H          19.6758    2.3396   18.8092 H     215  UNL215      0.0241
   1721 CL         22.3655    1.6123   22.8783 Cl    216  UNL216     -0.1257
   1722 C          20.8230    0.7306   22.8783 C.3   216  UNL216      0.0198
   1723 C          19.6585    1.6984   22.8783 C.3   216  UNL216     -0.0517
   1724 H          20.7984    0.0935   21.9897 H     216  UNL216      0.0427
   1725 H          20.7984    0.0935   23.7668 H     216  UNL216      0.0427
   1726 H          18.7116    1.1491   22.8783 H     216  UNL216      0.0241
   1727 H          19.6758    2.3396   23.7657 H     216  UNL216      0.0241
   1728 H          19.6758    2.3396   21.9909 H     216  UNL216      0.0241
   1729 CL         18.8763    2.9325   26.0599 Cl    217  UNL217     -0.1257
   1730 C          20.3557    1.9486   26.0599 C.3   217  UNL217      0.0198
   1731 C          20.0123    0.4739   26.0599 C.3   217  UNL217     -0.0517
   1732 H          20.9363    2.2121   25.1713 H     217  UNL217      0.0427
   1733 H          20.9363    2.2121   26.9484 H     217  UNL217      0.0427
   1734 H          20.9277   -0.1265   26.0599 H     217  UNL217      0.0241
   1735 H          19.4313    0.2021   26.9473 H     217  UNL217      0.0241
   1736 H          19.4313    0.2021   25.1725 H     217  UNL217      0.0241
   1737 CL         22.2655    5.1692    4.8699 Cl    218  UNL218     -0.1257
   1738 C          20.7230    4.2875    4.8699 C.3   218  UNL218      0.0198
   1739 C          19.5585    5.2553    4.8699 C.3   218  UNL218     -0.0517
   1740 H          20.6984    3.6504    3.9813 H     218  UNL218      0.0427
   1741 H          20.6984    3.6504    5.7584 H     218  UNL218      0.0427
   1742 H          18.6116    4.7060    4.8699 H     218  UNL218      0.0241
   1743 H          19.5758    5.8965    5.7573 H     218  UNL218      0.0241
   1744 H          19.5758    5.8965    3.9825 H     218  UNL218      0.0241
   1745 CL         22.3655    5.0692    8.9515 Cl    219  UNL219     -0.1257
   1746 C          20.8230    4.1875    8.9515 C.3   219  UNL219      0.0198
   1747 C          19.6585    5.1553    8.9515 C.3   219  UNL219     -0.0517
   1748 H          20.7984    3.5504    8.0629 H     219  UNL219      0.0427
   1749 H          20.7984    3.5504    9.8400 H     219  UNL219      0.0427
   1750 H          18.7116    4.6060    8.9515 H     219  UNL219      0.0241
   1751 H          19.6758    5.7965    9.8389 H     219  UNL219      0.0241
   1752 H          19.6758    5.7965    8.0641 H     219  UNL219      0.0241
   1753 CL         20.2655    4.6014   11.1486 Cl    220  UNL220     -0.1257
   1754 C          18.7230    5.1291   11.8550 C.3   220  UNL220      0.0198
   1755 C          17.5585    4.5499   11.0796 C.3   220  UNL220     -0.0517
   1756 H          18.6984    4.7984   12.8972 H     220  UNL220      0.0427
   1757 H          18.6984    6.2222   11.8337 H     220  UNL220      0.0427
   1758 H          16.6116    4.8786   11.5197 H     220  UNL220      0.0241
   1759 H          17.5758    4.8771   10.0349 H     220  UNL220      0.0241
   1760 H          17.5758    3.4552   11.0970 H     220  UNL220      0.0241
   1761 CL         20.2655    2.6014   16.2303 Cl    221  UNL221     -0.1257
   1762 C          18.7230    3.1291   16.9367 C.3   221  UNL221      0.0198
   1763 C          17.5585    2.5499   16.1613 C.3   221  UNL221     -0.0517
   1764 H          18.6984    2.7984   17.9789 H     221  UNL221      0.0427
   1765 H          18.6984    4.2222   16.9153 H     221  UNL221      0.0427
   1766 H          16.6116    2.8786   16.6014 H     221  UNL221      0.0241
   1767 H          17.5758    2.8771   15.1165 H     221  UNL221      0.0241
   1768 H          17.5758    1.4552   16.1787 H     221  UNL221      0.0241
   1769 CL         18.8763    6.4894   19.6966 Cl    222  UNL222     -0.1257
   1770 C          20.3557    5.5055   19.6966 C.3   222  UNL222      0.0198
   1771 C          20.0123    4.0308   19.6966 C.3   222  UNL222     -0.0517
   1772 H          20.9363    5.7690   18.8080 H     222  UNL222      0.0427
   1773 H          20.9363    5.7690   20.5851 H     222  UNL222      0.0427
   1774 H          20.9277    3.4304   19.6966 H     222  UNL222      0.0241
   1775 H          19.4313    3.7589   20.5840 H     222  UNL222      0.0241
   1776 H          19.4313    3.7589   18.8092 H     222  UNL222      0.0241
   1777 CL         21.8383    6.1168   22.8783 Cl    223  UNL223     -0.1257
   1778 C          20.9140    4.5994   22.8783 C.3   223  UNL223      0.0198
   1779 C          19.4268    4.8838   22.8783 C.3   223  UNL223     -0.0517
   1780 H          21.2004    4.0298   21.9897 H     223  UNL223      0.0427
   1781 H          21.2004    4.0298   23.7668 H     223  UNL223      0.0427
   1782 H          18.8633    3.9453   22.8783 H     223  UNL223      0.0241
   1783 H          19.1321    5.4535   23.7657 H     223  UNL223      0.0241
   1784 H          19.1321    5.4535   21.9909 H     223  UNL223      0.0241
   1785 CL         22.2655    5.1692   26.0599 Cl    224  UNL224     -0.1257
   1786 C          20.7230    4.2875   26.0599 C.3   224  UNL224      0.0198
   1787 C          19.5585    5.2553   26.0599 C.3   224  UNL224     -0.0517
   1788 H          20.6984    3.6504   25.1713 H     224  UNL224      0.0427
   1789 H          20.6984    3.6504   26.9484 H     224  UNL224      0.0427
   1790 H          18.6116    4.7060   26.0599 H     224  UNL224      0.0241
   1791 H          19.5758    5.8965   26.9473 H     224  UNL224      0.0241
   1792 H          19.5758    5.8965   25.1725 H     224  UNL224      0.0241
   1793 CL         18.6699    6.6142    0.6065 Cl    225  UNL225     -0.1257
   1794 C          18.8866    8.3776    0.6065 C.3   225  UNL225      0.0198
   1795 C          20.3589    8.7314    0.6065 C.3   225  UNL225     -0.0517
   1796 H          18.3909    8.7786   -0.2821 H     225  UNL225      0.0427
   1797 H          18.3909    8.7786    1.4950 H     225  UNL225      0.0427
   1798 H          20.4855    9.8187    0.6065 H     225  UNL225      0.0241
   1799 H          20.8622    8.3338    1.4939 H     225  UNL225      0.0241
   1800 H          20.8622    8.3338   -0.2809 H     225  UNL225      0.0241
   1801 CL         21.6706    7.3766    4.7339 Cl    226  UNL226     -0.1257
   1802 C          20.7535    8.7592    4.0982 C.3   226  UNL226      0.0198
   1803 C          19.3879    8.3146    3.6183 C.3   226  UNL226     -0.0517
   1804 H          20.6619    9.4998    4.8977 H     226  UNL226      0.0427
   1805 H          21.3292    9.1980    3.2785 H     226  UNL226      0.0427
   1806 H          18.8282    9.1707    3.2280 H     226  UNL226      0.0241
   1807 H          19.4712    7.5732    2.8169 H     226  UNL226      0.0241
   1808 H          18.8048    7.8747    4.4339 H     226  UNL226      0.0241
   1809 CL         22.2647    8.0109    6.9699 Cl    227  UNL227     -0.1257
   1810 C          20.5149    7.7030    6.9699 C.3   227  UNL227      0.0198
   1811 C          19.7465    9.0077    6.9699 C.3   227  UNL227     -0.0517
   1812 H          20.2762    7.1118    6.0813 H     227  UNL227      0.0427
   1813 H          20.2762    7.1118    7.8584 H     227  UNL227      0.0427
   1814 H          18.6696    8.8111    6.9699 H     227  UNL227      0.0241
   1815 H          19.9797    9.6052    7.8573 H     227  UNL227      0.0241
   1816 H          19.9797    9.6052    6.0825 H     227  UNL227      0.0241
   1817 CL         18.2437    8.8261   11.0972 Cl    228  UNL228     -0.1257
   1818 C          19.6491    7.9444   10.4615 C.3   228  UNL228      0.0198
   1819 C          20.7101    8.9122    9.9816 C.3   228  UNL228     -0.0517
   1820 H          20.0377    7.3073   11.2610 H     228  UNL228      0.0427
   1821 H          19.3053    7.3073    9.6419 H     228  UNL228      0.0427
   1822 H          21.5728    8.3629    9.5914 H     228  UNL228      0.0241
   1823 H          20.3286    9.5534    9.1802 H     228  UNL228      0.0241
   1824 H          21.0600    9.5534   10.7973 H     228  UNL228      0.0241
   1825 CL         18.1961    7.8535   13.3332 Cl    229  UNL229     -0.1257
   1826 C          19.6635    8.8551   13.3332 C.3   229  UNL229      0.0198
   1827 C          20.9013    7.9830   13.3332 C.3   229  UNL229     -0.0517
   1828 H          19.6373    9.4921   12.4446 H     229  UNL229      0.0427
   1829 H          19.6373    9.4921   14.2217 H     229  UNL229      0.0427
   1830 H          21.8015    8.6060   13.3332 H     229  UNL229      0.0241
   1831 H          20.9351    7.3425   14.2206 H     229  UNL229      0.0241
   1832 H          20.9351    7.3425   12.4458 H     229  UNL229      0.0241
   1833 CL         22.2655    6.1168   16.4866 Cl    230  UNL230     -0.1257
   1834 C          20.7230    6.9957   16.5568 C.3   230  UNL230      0.0198
   1835 C          19.5585    6.0309   16.4797 C.3   230  UNL230     -0.0517
   1836 H          20.6984    7.5600   17.4932 H     230  UNL230      0.0427
   1837 H          20.6984    7.7014   15.7218 H     230  UNL230      0.0427
   1838 H          18.6116    6.5785   16.5235 H     230  UNL230      0.0241
   1839 H          19.5758    5.4624   15.5441 H     230  UNL230      0.0241
   1840 H          19.5758    5.3211   17.3133 H     230  UNL230      0.0241
   1841 CL         22.2655    8.7261   19.6966 Cl    231  UNL231     -0.1257
   1842 C          20.7230    7.8444   19.6966 C.3   231  UNL231      0.0198
   1843 C          19.5585    8.8122   19.6966 C.3   231  UNL231     -0.0517
   1844 H          20.6984    7.2073   18.8080 H     231  UNL231      0.0427
   1845 H          20.6984    7.2073   20.5851 H     231  UNL231      0.0427
   1846 H          18.6116    8.2629   19.6966 H     231  UNL231      0.0241
   1847 H          19.5758    9.4534   20.5840 H     231  UNL231      0.0241
   1848 H          19.5758    9.4534   18.8092 H     231  UNL231      0.0241
   1849 CL         22.2655    8.7261   22.8783 Cl    232  UNL232     -0.1257
   1850 C          20.7230    7.8444   22.8783 C.3   232  UNL232      0.0198
   1851 C          19.5585    8.8122   22.8783 C.3   232  UNL232     -0.0517
   1852 H          20.6984    7.2073   21.9897 H     232  UNL232      0.0427
   1853 H          20.6984    7.2073   23.7668 H     232  UNL232      0.0427
   1854 H          18.6116    8.2629   22.8783 H     232  UNL232      0.0241
   1855 H          19.5758    9.4534   23.7657 H     232  UNL232      0.0241
   1856 H          19.5758    9.4534   21.9909 H     232  UNL232      0.0241
   1857 CL         21.8383    9.6737   26.0599 Cl    233  UNL233     -0.1257
   1858 C          20.9140    8.1563   26.0599 C.3   233  UNL233      0.0198
   1859 C          19.4268    8.4407   26.0599 C.3   233  UNL233     -0.0517
   1860 H          21.2004    7.5866   25.1713 H     233  UNL233      0.0427
   1861 H          21.2004    7.5866   26.9484 H     233  UNL233      0.0427
   1862 H          18.8633    7.5022   26.0599 H     233  UNL233      0.0241
   1863 H          19.1321    9.0104   26.9473 H     233  UNL233      0.0241
   1864 H          19.1321    9.0104   25.1725 H     233  UNL233      0.0241
   1865 CL         20.5655   11.7152    1.4036 Cl    234  UNL234     -0.1257
   1866 C          19.0231   12.2428    2.1099 C.3   234  UNL234      0.0198
   1867 C          17.8585   11.6636    1.3346 C.3   234  UNL234     -0.0517
   1868 H          18.9984   11.9122    3.1521 H     234  UNL234      0.0427
   1869 H          18.9984   13.3359    2.0886 H     234  UNL234      0.0427
   1870 H          16.9116   11.9924    1.7747 H     234  UNL234      0.0241
   1871 H          17.8758   11.9908    0.2898 H     234  UNL234      0.0241
   1872 H          17.8758   10.5690    1.3520 H     234  UNL234      0.0241
   1873 CL         18.1833   11.6041    4.3575 Cl    235  UNL235     -0.1257
   1874 C          19.7385   12.4074    4.6621 C.3   235  UNL235      0.0198
   1875 C          20.6351   11.5256    5.5055 C.3   235  UNL235     -0.0517
   1876 H          20.2028   12.6217    3.6954 H     235  UNL235      0.0427
   1877 H          19.5355   13.3541    5.1707 H     235  UNL235      0.0427
   1878 H          21.5912   12.0261    5.6894 H     235  UNL235      0.0241
   1879 H          20.1773   11.3071    6.4758 H     235  UNL235      0.0241
   1880 H          20.8437   10.5757    5.0024 H     235  UNL235      0.0241
   1881 CL         22.2655   12.2830    8.2515 Cl    236  UNL236     -0.1257
   1882 C          20.7230   11.4013    8.2515 C.3   236  UNL236      0.0198
   1883 C          19.5585   12.3691    8.2515 C.3   236  UNL236     -0.0517
   1884 H          20.6984   10.7642    7.3629 H     236  UNL236      0.0427
   1885 H          20.6984   10.7642    9.1400 H     236  UNL236      0.0427
   1886 H          18.6116   11.8198    8.2515 H     236  UNL236      0.0241
   1887 H          19.5758   13.0103    9.1389 H     236  UNL236      0.0241
   1888 H          19.5758   13.0103    7.3641 H     236  UNL236      0.0241
   1889 CL         18.2973   12.3498   11.4332 Cl    237  UNL237     -0.1257
   1890 C          20.0661   12.5174   11.4332 C.3   237  UNL237      0.0198
   1891 C          20.7282   11.1557   11.4332 C.3   237  UNL237     -0.0517
   1892 H          20.3510   13.0878   10.5446 H     237  UNL237      0.0427
   1893 H          20.3510   13.0878   12.3217 H     237  UNL237      0.0427
   1894 H          21.8173   11.2660   11.4332 H     237  UNL237      0.0241
   1895 H          20.4482   10.5787   12.3206 H     237  UNL237      0.0241
   1896 H          20.4482   10.5787   10.5458 H     237  UNL237      0.0241
   1897 CL         22.2655   12.2830   14.4149 Cl    238  UNL238     -0.1257
   1898 C          20.7230   11.4013   14.4149 C.3   238  UNL238      0.0198
   1899 C          19.5585   12.3691   14.4149 C.3   238  UNL238     -0.0517
   1900 H          20.6984   10.7642   13.5263 H     238  UNL238      0.0427
   1901 H          20.6984   10.7642   15.3034 H     238  UNL238      0.0427
   1902 H          18.6116   11.8198   14.4149 H     238  UNL238      0.0241
   1903 H          19.5758   13.0103   15.3023 H     238  UNL238      0.0241
   1904 H          19.5758   13.0103   13.5275 H     238  UNL238      0.0241
   1905 CL         20.2655   11.4736   17.8248 Cl    239  UNL239     -0.1257
   1906 C          18.7230   12.3525   17.7547 C.3   239  UNL239      0.0198
   1907 C          17.5585   11.3878   17.8317 C.3   239  UNL239     -0.0517
   1908 H          18.6984   13.0583   18.5897 H     239  UNL239      0.0427
   1909 H          18.6984   12.9169   16.8183 H     239  UNL239      0.0427
   1910 H          16.6116   11.9354   17.7880 H     239  UNL239      0.0241
   1911 H          17.5758   10.6780   16.9981 H     239  UNL239      0.0241
   1912 H          17.5758   10.8193   18.7673 H     239  UNL239      0.0241
   1913 CL         18.2437   12.3830   19.8325 Cl    240  UNL240     -0.1257
   1914 C          19.6491   11.5013   20.4682 C.3   240  UNL240      0.0198
   1915 C          20.7101   12.4691   20.9481 C.3   240  UNL240     -0.0517
   1916 H          19.3053   10.8642   21.2880 H     240  UNL240      0.0427
   1917 H          20.0377   10.8642   19.6688 H     240  UNL240      0.0427
   1918 H          21.5728   11.9198   21.3384 H     240  UNL240      0.0241
   1919 H          21.0601   13.1103   20.1325 H     240  UNL240      0.0241
   1920 H          20.3286   13.1103   21.7495 H     240  UNL240      0.0241
   1921 CL         18.4437   12.1830   22.4142 Cl    241  UNL241     -0.1257
   1922 C          19.8491   11.3013   23.0499 C.3   241  UNL241      0.0198
   1923 C          20.9101   12.2691   23.5298 C.3   241  UNL241     -0.0517
   1924 H          19.5053   10.6642   23.8697 H     241  UNL241      0.0427
   1925 H          20.2377   10.6642   22.2505 H     241  UNL241      0.0427
   1926 H          21.7729   11.7198   23.9200 H     241  UNL241      0.0241
   1927 H          21.2601   12.9103   22.7141 H     241  UNL241      0.0241
   1928 H          20.5286   12.9103   24.3312 H     241  UNL241      0.0241
   1929 CL         22.2655   12.2830   27.2416 Cl    242  UNL242     -0.1257
   1930 C          20.7230   11.4013   27.2416 C.3   242  UNL242      0.0198
   1931 C          19.5585   12.3691   27.2416 C.3   242  UNL242     -0.0517
   1932 H          20.6984   10.7642   26.3530 H     242  UNL242      0.0427
   1933 H          20.6984   10.7642   28.1301 H     242  UNL242      0.0427
   1934 H          18.6116   11.8198   27.2416 H     242  UNL242      0.0241
   1935 H          19.5758   13.0103   28.1290 H     242  UNL242      0.0241
   1936 H          19.5758   13.0103   26.3542 H     242  UNL242      0.0241
   1937 CL         22.2655   15.8398    0.6065 Cl    243  UNL243     -0.1257
   1938 C          20.7230   14.9581    0.6065 C.3   243  UNL243      0.0198
   1939 C          19.5585   15.9259    0.6065 C.3   243  UNL243     -0.0517
   1940 H          20.6984   14.3210   -0.2821 H     243  UNL243      0.0427
   1941 H          20.6984   14.3210    1.4950 H     243  UNL243      0.0427
   1942 H          18.6116   15.3766    0.6065 H     243  UNL243      0.0241
   1943 H          19.5758   16.5671    1.4939 H     243  UNL243      0.0241
   1944 H          19.5758   16.5671   -0.2809 H     243  UNL243      0.0241
   1945 CL         21.8383   16.7874    3.7882 Cl    244  UNL244     -0.1257
   1946 C          20.9140   15.2700    3.7882 C.3   244  UNL244      0.0198
   1947 C          19.4268   15.5545    3.7882 C.3   244  UNL244     -0.0517
   1948 H          21.2004   14.7004    2.8996 H     244  UNL244      0.0427
   1949 H          21.2004   14.7004    4.6767 H     244  UNL244      0.0427
   1950 H          18.8633   14.6159    3.7882 H     244  UNL244      0.0241
   1951 H          19.1321   16.1242    4.6756 H     244  UNL244      0.0241
   1952 H          19.1321   16.1242    2.9008 H     244  UNL244      0.0241
   1953 CL         22.2655   15.8398    6.9699 Cl    245  UNL245     -0.1257
   1954 C          20.7230   14.9581    6.9699 C.3   245  UNL245      0.0198
   1955 C          19.5585   15.9259    6.9699 C.3   245  UNL245     -0.0517
   1956 H          20.6984   14.3210    6.0813 H     245  UNL245      0.0427
   1957 H          20.6984   14.3210    7.8584 H     245  UNL245      0.0427
   1958 H          18.6116   15.3766    6.9699 H     245  UNL245      0.0241
   1959 H          19.5758   16.5671    7.8573 H     245  UNL245      0.0241
   1960 H          19.5758   16.5671    6.0825 H     245  UNL245      0.0241
   1961 CL         21.8383   16.7874   10.1515 Cl    246  UNL246     -0.1257
   1962 C          20.9140   15.2700   10.1515 C.3   246  UNL246      0.0198
   1963 C          19.4268   15.5545   10.1515 C.3   246  UNL246     -0.0517
   1964 H          21.2004   14.7004    9.2629 H     246  UNL246      0.0427
   1965 H          21.2004   14.7004   11.0400 H     246  UNL246      0.0427
   1966 H          18.8633   14.6159   10.1515 H     246  UNL246      0.0241
   1967 H          19.1321   16.1242   11.0389 H     246  UNL246      0.0241
   1968 H          19.1321   16.1242    9.2641 H     246  UNL246      0.0241
   1969 CL         22.2655   15.8398   13.3332 Cl    247  UNL247     -0.1257
   1970 C          20.7230   14.9581   13.3332 C.3   247  UNL247      0.0198
   1971 C          19.5585   15.9259   13.3332 C.3   247  UNL247     -0.0517
   1972 H          20.6984   14.3210   12.4446 H     247  UNL247      0.0427
   1973 H          20.6984   14.3210   14.2217 H     247  UNL247      0.0427
   1974 H          18.6116   15.3766   13.3332 H     247  UNL247      0.0241
   1975 H          19.5758   16.5671   14.2206 H     247  UNL247      0.0241
   1976 H          19.5758   16.5671   12.4458 H     247  UNL247      0.0241
   1977 CL         21.9383   16.7874   16.5149 Cl    248  UNL248     -0.1257
   1978 C          21.0140   15.2700   16.5149 C.3   248  UNL248      0.0198
   1979 C          19.5268   15.5545   16.5149 C.3   248  UNL248     -0.0517
   1980 H          21.3004   14.7004   15.6263 H     248  UNL248      0.0427
   1981 H          21.3004   14.7004   17.4034 H     248  UNL248      0.0427
   1982 H          18.9633   14.6159   16.5149 H     248  UNL248      0.0241
   1983 H          19.2321   16.1242   17.4023 H     248  UNL248      0.0241
   1984 H          19.2321   16.1242   15.6275 H     248  UNL248      0.0241
   1985 CL         22.2655   15.8398   19.6966 Cl    249  UNL249     -0.1257
   1986 C          20.7230   14.9581   19.6966 C.3   249  UNL249      0.0198
   1987 C          19.5585   15.9259   19.6966 C.3   249  UNL249     -0.0517
   1988 H          20.6984   14.3210   18.8080 H     249  UNL249      0.0427
   1989 H          20.6984   14.3210   20.5851 H     249  UNL249      0.0427
   1990 H          18.6116   15.3766   19.6966 H     249  UNL249      0.0241
   1991 H          19.5758   16.5671   20.5840 H     249  UNL249      0.0241
   1992 H          19.5758   16.5671   18.8092 H     249  UNL249      0.0241
   1993 CL         18.8763   17.1600   22.8783 Cl    250  UNL250     -0.1257
   1994 C          20.3557   16.1761   22.8783 C.3   250  UNL250      0.0198
   1995 C          20.0123   14.7014   22.8783 C.3   250  UNL250     -0.0517
   1996 H          20.9363   16.4396   21.9897 H     250  UNL250      0.0427
   1997 H          20.9363   16.4396   23.7668 H     250  UNL250      0.0427
   1998 H          20.9277   14.1010   22.8783 H     250  UNL250      0.0241
   1999 H          19.4313   14.4296   23.7657 H     250  UNL250      0.0241
   2000 H          19.4313   14.4296   21.9909 H     250  UNL250      0.0241
   2001 CL         22.2655   15.8398   26.0599 Cl    251  UNL251     -0.1257
   2002 C          20.7230   14.9581   26.0599 C.3   251  UNL251      0.0198
   2003 C          19.5585   15.9259   26.0599 C.3   251  UNL251     -0.0517
   2004 H          20.6984   14.3210   25.1713 H     251  UNL251      0.0427
   2005 H          20.6984   14.3210   26.9484 H     251  UNL251      0.0427
   2006 H          18.6116   15.3766   26.0599 H     251  UNL251      0.0241
   2007 H          19.5758   16.5671   26.9473 H     251  UNL251      0.0241
   2008 H          19.5758   16.5671   25.1725 H     251  UNL251      0.0241
   2009 CL         18.1833   18.7178    0.7758 Cl    252  UNL252     -0.1257
   2010 C          19.7385   19.5212    1.0805 C.3   252  UNL252      0.0198
   2011 C          20.6351   18.6394    1.9238 C.3   252  UNL252     -0.0517
   2012 H          20.2028   19.7355    0.1137 H     252  UNL252      0.0427
   2013 H          19.5355   20.4678    1.5890 H     252  UNL252      0.0427
   2014 H          21.5912   19.1399    2.1078 H     252  UNL252      0.0241
   2015 H          20.1773   18.4209    2.8941 H     252  UNL252      0.0241
   2016 H          20.8437   17.6895    1.4207 H     252  UNL252      0.0241
   2017 CL         18.5901   17.7721    4.2699 Cl    253  UNL253     -0.1257
   2018 C          19.6321   19.2112    4.2699 C.3   253  UNL253      0.0198
   2019 C          21.0920   18.8093    4.2699 C.3   253  UNL253     -0.0517
   2020 H          19.3920   19.8018    3.3813 H     253  UNL253      0.0427
   2021 H          19.3920   19.8018    5.1584 H     253  UNL253      0.0427
   2022 H          21.7283   19.7000    4.2699 H     253  UNL253      0.0241
   2023 H          21.3405   18.2179    5.1573 H     253  UNL253      0.0241
   2024 H          21.3405   18.2179    3.3825 H     253  UNL253      0.0241
   2025 CL         22.3655   19.2967    7.2515 Cl    254  UNL254     -0.1257
   2026 C          20.8230   18.4150    7.2515 C.3   254  UNL254      0.0198
   2027 C          19.6585   19.3828    7.2515 C.3   254  UNL254     -0.0517
   2028 H          20.7984   17.7779    6.3629 H     254  UNL254      0.0427
   2029 H          20.7984   17.7779    8.1400 H     254  UNL254      0.0427
   2030 H          18.7116   18.8335    7.2515 H     254  UNL254      0.0241
   2031 H          19.6758   20.0240    8.1389 H     254  UNL254      0.0241
   2032 H          19.6758   20.0240    6.3641 H     254  UNL254      0.0241
   2033 CL         22.2655   19.3967   11.3332 Cl    255  UNL255     -0.1257
   2034 C          20.7230   18.5150   11.3332 C.3   255  UNL255      0.0198
   2035 C          19.5585   19.4828   11.3332 C.3   255  UNL255     -0.0517
   2036 H          20.6984   17.8779   10.4446 H     255  UNL255      0.0427
   2037 H          20.6984   17.8779   12.2217 H     255  UNL255      0.0427
   2038 H          18.6116   18.9335   11.3332 H     255  UNL255      0.0241
   2039 H          19.5758   20.1240   12.2206 H     255  UNL255      0.0241
   2040 H          19.5758   20.1240   10.4458 H     255  UNL255      0.0241
   2041 CL         22.2655   19.3967   14.5149 Cl    256  UNL256     -0.1257
   2042 C          20.7230   18.5150   14.5149 C.3   256  UNL256      0.0198
   2043 C          19.5585   19.4828   14.5149 C.3   256  UNL256     -0.0517
   2044 H          20.6984   17.8779   13.6263 H     256  UNL256      0.0427
   2045 H          20.6984   17.8779   15.4034 H     256  UNL256      0.0427
   2046 H          18.6116   18.9335   14.5149 H     256  UNL256      0.0241
   2047 H          19.5758   20.1240   15.4023 H     256  UNL256      0.0241
   2048 H          19.5758   20.1240   13.6275 H     256  UNL256      0.0241
   2049 CL         20.3655   18.8289   17.4120 Cl    257  UNL257     -0.1257
   2050 C          18.8230   19.3566   18.1183 C.3   257  UNL257      0.0198
   2051 C          17.6585   18.7774   17.3430 C.3   257  UNL257     -0.0517
   2052 H          18.7984   19.0260   19.1605 H     257  UNL257      0.0427
   2053 H          18.7984   20.4497   18.0970 H     257  UNL257      0.0427
   2054 H          16.7116   19.1061   17.7831 H     257  UNL257      0.0241
   2055 H          17.6758   19.1046   16.2982 H     257  UNL257      0.0241
   2056 H          17.6758   17.6827   17.3604 H     257  UNL257      0.0241
   2057 CL         22.1655   18.7178   22.0246 Cl    258  UNL258     -0.1257
   2058 C          20.6230   19.5212   21.6613 C.3   258  UNL258      0.0198
   2059 C          19.4585   18.6394   22.0601 C.3   258  UNL258     -0.0517
   2060 H          20.5984   20.4679   22.2083 H     258  UNL258      0.0427
   2061 H          20.5984   19.7355   20.5892 H     258  UNL258      0.0427
   2062 H          18.5116   19.1399   21.8337 H     258  UNL258      0.0241
   2063 H          19.4758   17.6895   21.5158 H     258  UNL258      0.0241
   2064 H          19.4758   18.4209   23.1329 H     258  UNL258      0.0241
   2065 CL         20.5655   18.8289   24.1753 Cl    259  UNL259     -0.1257
   2066 C          19.0231   19.3566   24.8817 C.3   259  UNL259      0.0198
   2067 C          17.8585   18.7774   24.1063 C.3   259  UNL259     -0.0517
   2068 H          18.9984   19.0260   25.9239 H     259  UNL259      0.0427
   2069 H          18.9984   20.4497   24.8604 H     259  UNL259      0.0427
   2070 H          16.9116   19.1061   24.5464 H     259  UNL259      0.0241
   2071 H          17.8758   19.1046   23.0616 H     259  UNL259      0.0241
   2072 H          17.8758   17.6827   24.1237 H     259  UNL259      0.0241
@<TRIPOS>BOND
     1     1     2    1
     2     2     3    1
     3     2     4    1
     4     2     5    1
     5     3     6    1
     6     3     7    1
     7     3     8    1
     8     9    10    1
     9    10    11    1
    10    10    12    1
    11    10    13    1
    12    11    14    1
    13    11    15    1
    14    11    16    1
    15    17    18    1
    16    18    19    1
    17    18    20    1
    18    18    21    1
    19    19    22    1
    20    19    23    1
    21    19    24    1
    22    25    26    1
    23    26    27    1
    24    26    28    1
    25    26    29    1
    26    27    30    1
    27    27    31    1
    28    27    32    1
    29    33    34    1
    30    34    35    1
    31    34    36    1
    32    34    37    1
    33    35    38    1
    34    35    39    1
    35    35    40    1
    36    41    42    1
    37    42    43    1
    38    42    44    1
    39    42    45    1
    40    43    46    1
    41    43    47    1
    42    43    48    1
    43    49    50    1
    44    50    51    1
    45    50    52    1
    46    50    53    1
    47    51    54    1
    48    51    55    1
    49    51    56    1
    50    57    58    1
    51    58    59    1
    52    58    60    1
    53    58    61    1
    54    59    62    1
    55    59    63    1
    56    59    64    1
    57    65    66    1
    58    66    67    1
    59    66    68    1
    60    66    69    1
    61    67    70    1
    62    67    71    1
    63    67    72    1
    64    73    74    1
    65    74    75    1
    66    74    76    1
    67    74    77    1
    68    75    78    1
    69    75    79    1
    70    75    80    1
    71    81    82    1
    72    82    83    1
    73    82    84    1
    74    82    85    1
    75    83    86    1
    76    83    87    1
    77    83    88    1
    78    89    90    1
    79    90    91    1
    80    90    92    1
    81    90    93    1
    82    91    94    1
    83    91    95    1
    84    91    96    1
    85    97    98    1
    86    98    99    1
    87    98   100    1
    88    98   101    1
    89    99   102    1
    90    99   103    1
    91    99   104    1
    92   105   106    1
    93   106   107    1
    94   106   108    1
    95   106   109    1
    96   107   110    1
    97   107   111    1
    98   107   112    1
    99   113   114    1
   100   114   115    1
   101   114   116    1
   102   114   117    1
   103   115   118    1
   104   115   119    1
   105   115   120    1
   106   121   122    1
   107   122   123    1
   108   122   124    1
   109   122   125    1
   110   123   126    1
   111   123   127    1
   112   123   128    1
   113   129   130    1
   114   130   131    1
   115   130   132    1
   116   130   133    1
   117   131   134    1
   118   131   135    1
   119   131   136    1
   120   137   138    1
   121   138   139    1
   122   138   140    1
   123   138   141    1
   124   139   142    1
   125   139   143    1
   126   139   144    1
   127   145   146    1
   128   146   147    1
   129   146   148    1
   130   146   149    1
   131   147   150    1
   132   147   151    1
   133   147   152    1
   134   153   154    1
   135   154   155    1
   136   154   156    1
   137   154   157    1
   138   155   158    1
   139   155   159    1
   140   155   160    1
   141   161   162    1
   142   162   163    1
   143   162   164    1
   144   162   165    1
   145   163   166    1
   146   163   167    1
   147   163   168    1
   148   169   170    1
   149   170   171    1
   150   170   172    1
   151   170   173    1
   152   171   174    1
   153   171   175    1
   154   171   176    1
   155   177   178    1
   156   178   179    1
   157   178   180    1
   158   178   181    1
   159   179   182    1
   160   179   183    1
   161   179   184    1
   162   185   186    1
   163   186   187    1
   164   186   188    1
   165   186   189    1
   166   187   190    1
   167   187   191    1
   168   187   192    1
   169   193   194    1
   170   194   195    1
   171   194   196    1
   172   194   197    1
   173   195   198    1
   174   195   199    1
   175   195   200    1
   176   201   202    1
   177   202   203    1
   178   202   204    1
   179   202   205    1
   180   203   206    1
   181   203   207    1
   182   203   208    1
   183   209   210    1
   184   210   211    1
   185   210   212    1
   186   210   213    1
   187   211   214    1
   188   211   215    1
   189   211   216    1
   190   217   218    1
   191   218   219    1
   192   218   220    1
   193   218   221    1
   194   219   222    1
   195   219   223    1
   196   219   224    1
   197   225   226    1
   198   226   227    1
   199   226   228    1
   200   226   229    1
   201   227   230    1
   202   227   231    1
   203   227   232    1
   204   233   234    1
   205   234   235    1
   206   234   236    1
   207   234   237    1
   208   235   238    1
   209   235   239    1
   210   235   240    1
   211   241   242    1
   212   242   243    1
   213   242   244    1
   214   242   245    1
   215   243   246    1
   216   243   247    1
   217   243   248    1
   218   249   250    1
   219   250   251    1
   220   250   252    1
   221   250   253    1
   222   251   254    1
   223   251   255    1
   224   251   256    1
   225   257   258    1
   226   258   259    1
   227   258   260    1
   228   258   261    1
   229   259   262    1
   230   259   263    1
   231   259   264    1
   232   265   266    1
   233   266   267    1
   234   266   268    1
   235   266   269    1
   236   267   270    1
   237   267   271    1
   238   267   272    1
   239   273   274    1
   240   274   275    1
   241   274   276    1
   242   274   277    1
   243   275   278    1
   244   275   279    1
   245   275   280    1
   246   281   282    1
   247   282   283    1
   248   282   284    1
   249   282   285    1
   250   283   286    1
   251   283   287    1
   252   283   288    1
   253   289   290    1
   254   290   291    1
   255   290   292    1
   256   290   293    1
   257   291   294    1
   258   291   295    1
   259   291   296    1
   260   297   298    1
   261   298   299    1
   262   298   300    1
   263   298   301    1
   264   299   302    1
   265   299   303    1
   266   299   304    1
   267   305   306    1
   268   306   307    1
   269   306   308    1
   270   306   309    1
   271   307   310    1
   272   307   311    1
   273   307   312    1
   274   313   314    1
   275   314   315    1
   276   314   316    1
   277   314   317    1
   278   315   318    1
   279   315   319    1
   280   315   320    1
   281   321   322    1
   282   322   323    1
   283   322   324    1
   284   322   325    1
   285   323   326    1
   286   323   327    1
   287   323   328    1
   288   329   330    1
   289   330   331    1
   290   330   332    1
   291   330   333    1
   292   331   334    1
   293   331   335    1
   294   331   336    1
   295   337   338    1
   296   338   339    1
   297   338   340    1
   298   338   341    1
   299   339   342    1
   300   339   343    1
   301   339   344    1
   302   345   346    1
   303   346   347    1
   304   346   348    1
   305   346   349    1
   306   347   350    1
   307   347   351    1
   308   347   352    1
   309   353   354    1
   310   354   355    1
   311   354   356    1
   312   354   357    1
   313   355   358    1
   314   355   359    1
   315   355   360    1
   316   361   362    1
   317   362   363    1
   318   362   364    1
   319   362   365    1
   320   363   366    1
   321   363   367    1
   322   363   368    1
   323   369   370    1
   324   370   371    1
   325   370   372    1
   326   370   373    1
   327   371   374    1
   328   371   375    1
   329   371   376    1
   330   377   378    1
   331   378   379    1
   332   378   380    1
   333   378   381    1
   334   379   382    1
   335   379   383    1
   336   379   384    1
   337   385   386    1
   338   386   387    1
   339   386   388    1
   340   386   389    1
   341   387   390    1
   342   387   391    1
   343   387   392    1
   344   393   394    1
   345   394   395    1
   346   394   396    1
   347   394   397    1
   348   395   398    1
   349   395   399    1
   350   395   400    1
   351   401   402    1
   352   402   403    1
   353   402   404    1
   354   402   405    1
   355   403   406    1
   356   403   407    1
   357   403   408    1
   358   409   410    1
   359   410   411    1
   360   410   412    1
   361   410   413    1
   362   411   414    1
   363   411   415    1
   364   411   416    1
   365   417   418    1
   366   418   419    1
   367   418   420    1
   368   418   421    1
   369   419   422    1
   370   419   423    1
   371   419   424    1
   372   425   426    1
   373   426   427    1
   374   426   428    1
   375   426   429    1
   376   427   430    1
   377   427   431    1
   378   427   432    1
   379   433   434    1
   380   434   435    1
   381   434   436    1
   382   434   437    1
   383   435   438    1
   384   435   439    1
   385   435   440    1
   386   441   442    1
   387   442   443    1
   388   442   444    1
   389   442   445    1
   390   443   446    1
   391   443   447    1
   392   443   448    1
   393   449   450    1
   394   450   451    1
   395   450   452    1
   396   450   453    1
   397   451   454    1
   398   451   455    1
   399   451   456    1
   400   457   458    1
   401   458   459    1
   402   458   460    1
   403   458   461    1
   404   459   462    1
   405   459   463    1
   406   459   464    1
   407   465   466    1
   408   466   467    1
   409   466   468    1
   410   466   469    1
   411   467   470    1
   412   467   471    1
   413   467   472    1
   414   473   474    1
   415   474   475    1
   416   474   476    1
   417   474   477    1
   418   475   478    1
   419   475   479    1
   420   475   480    1
   421   481   482    1
   422   482   483    1
   423   482   484    1
   424   482   485    1
   425   483   486    1
   426   483   487    1
   427   483   488    1
   428   489   490    1
   429   490   491    1
   430   490   492    1
   431   490   493    1
   432   491   494    1
   433   491   495    1
   434   491   496    1
   435   497   498    1
   436   498   499    1
   437   498   500    1
   438   498   501    1
   439   499   502    1
   440   499   503    1
   441   499   504    1
   442   505   506    1
   443   506   507    1
   444   506   508    1
   445   506   509    1
   446   507   510    1
   447   507   511    1
   448   507   512    1
   449   513   514    1
   450   514   515    1
   451   514   516    1
   452   514   517    1
   453   515   518    1
   454   515   519    1
   455   515   520    1
   456   521   522    1
   457   522   523    1
   458   522   524    1
   459   522   525    1
   460   523   526    1
   461   523   527    1
   462   523   528    1
   463   529   530    1
   464   530   531    1
   465   530   532    1
   466   530   533    1
   467   531   534    1
   468   531   535    1
   469   531   536    1
   470   537   538    1
   471   538   539    1
   472   538   540    1
   473   538   541    1
   474   539   542    1
   475   539   543    1
   476   539   544    1
   477   545   546    1
   478   546   547    1
   479   546   548    1
   480   546   549    1
   481   547   550    1
   482   547   551    1
   483   547   552    1
   484   553   554    1
   485   554   555    1
   486   554   556    1
   487   554   557    1
   488   555   558    1
   489   555   559    1
   490   555   560    1
   491   561   562    1
   492   562   563    1
   493   562   564    1
   494   562   565    1
   495   563   566    1
   496   563   567    1
   497   563   568    1
   498   569   570    1
   499   570   571    1
   500   570   572    1
   501   570   573    1
   502   571   574    1
   503   571   575    1
   504   571   576    1
   505   577   578    1
   506   578   579    1
   507   578   580    1
   508   578   581    1
   509   579   582    1
   510   579   583    1
   511   579   584    1
   512   585   586    1
   513   586   587    1
   514   586   588    1
   515   586   589    1
   516   587   590    1
   517   587   591    1
   518   587   592    1
   519   593   594    1
   520   594   595    1
   521   594   596    1
   522   594   597    1
   523   595   598    1
   524   595   599    1
   525   595   600    1
   526   601   602    1
   527   602   603    1
   528   602   604    1
   529   602   605    1
   530   603   606    1
   531   603   607    1
   532   603   608    1
   533   609   610    1
   534   610   611    1
   535   610   612    1
   536   610   613    1
   537   611   614    1
   538   611   615    1
   539   611   616    1
   540   617   618    1
   541   618   619    1
   542   618   620    1
   543   618   621    1
   544   619   622    1
   545   619   623    1
   546   619   624    1
   547   625   626    1
   548   626   627    1
   549   626   628    1
   550   626   629    1
   551   627   630    1
   552   627   631    1
   553   627   632    1
   554   633   634    1
   555   634   635    1
   556   634   636    1
   557   634   637    1
   558   635   638    1
   559   635   639    1
   560   635   640    1
   561   641   642    1
   562   642   643    1
   563   642   644    1
   564   642   645    1
   565   643   646    1
   566   643   647    1
   567   643   648    1
   568   649   650    1
   569   650   651    1
   570   650   652    1
   571   650   653    1
   572   651   654    1
   573   651   655    1
   574   651   656    1
   575   657   658    1
   576   658   659    1
   577   658   660    1
   578   658   661    1
   579   659   662    1
   580   659   663    1
   581   659   664    1
   582   665   666    1
   583   666   667    1
   584   666   668    1
   585   666   669    1
   586   667   670    1
   587   667   671    1
   588   667   672    1
   589   673   674    1
   590   674   675    1
   591   674   676    1
   592   674   677    1
   593   675   678    1
   594   675   679    1
   595   675   680    1
   596   681   682    1
   597   682   683    1
   598   682   684    1
   599   682   685    1
   600   683   686    1
   601   683   687    1
   602   683   688    1
   603   689   690    1
   604   690   691    1
   605   690   692    1
   606   690   693    1
   607   691   694    1
   608   691   695    1
   609   691   696    1
   610   697   698    1
   611   698   699    1
   612   698   700    1
   613   698   701    1
   614   699   702    1
   615   699   703    1
   616   699   704    1
   617   705   706    1
   618   706   707    1
   619   706   708    1
   620   706   709    1
   621   707   710    1
   622   707   711    1
   623   707   712    1
   624   713   714    1
   625   714   715    1
   626   714   716    1
   627   714   717    1
   628   715   718    1
   629   715   719    1
   630   715   720    1
   631   721   722    1
   632   722   723    1
   633   722   724    1
   634   722   725    1
   635   723   726    1
   636   723   727    1
   637   723   728    1
   638   729   730    1
   639   730   731    1
   640   730   732    1
   641   730   733    1
   642   731   734    1
   643   731   735    1
   644   731   736    1
   645   737   738    1
   646   738   739    1
   647   738   740    1
   648   738   741    1
   649   739   742    1
   650   739   743    1
   651   739   744    1
   652   745   746    1
   653   746   747    1
   654   746   748    1
   655   746   749    1
   656   747   750    1
   657   747   751    1
   658   747   752    1
   659   753   754    1
   660   754   755    1
   661   754   756    1
   662   754   757    1
   663   755   758    1
   664   755   759    1
   665   755   760    1
   666   761   762    1
   667   762   763    1
   668   762   764    1
   669   762   765    1
   670   763   766    1
   671   763   767    1
   672   763   768    1
   673   769   770    1
   674   770   771    1
   675   770   772    1
   676   770   773    1
   677   771   774    1
   678   771   775    1
   679   771   776    1
   680   777   778    1
   681   778   779    1
   682   778   780    1
   683   778   781    1
   684   779   782    1
   685   779   783    1
   686   779   784    1
   687   785   786    1
   688   786   787    1
   689   786   788    1
   690   786   789    1
   691   787   790    1
   692   787   791    1
   693   787   792    1
   694   793   794    1
   695   794   795    1
   696   794   796    1
   697   794   797    1
   698   795   798    1
   699   795   799    1
   700   795   800    1
   701   801   802    1
   702   802   803    1
   703   802   804    1
   704   802   805    1
   705   803   806    1
   706   803   807    1
   707   803   808    1
   708   809   810    1
   709   810   811    1
   710   810   812    1
   711   810   813    1
   712   811   814    1
   713   811   815    1
   714   811   816    1
   715   817   818    1
   716   818   819    1
   717   818   820    1
   718   818   821    1
   719   819   822    1
   720   819   823    1
   721   819   824    1
   722   825   826    1
   723   826   827    1
   724   826   828    1
   725   826   829    1
   726   827   830    1
   727   827   831    1
   728   827   832    1
   729   833   834    1
   730   834   835    1
   731   834   836    1
   732   834   837    1
   733   835   838    1
   734   835   839    1
   735   835   840    1
   736   841   842    1
   737   842   843    1
   738   842   844    1
   739   842   845    1
   740   843   846    1
   741   843   847    1
   742   843   848    1
   743   849   850    1
   744   850   851    1
   745   850   852    1
   746   850   853    1
   747   851   854    1
   748   851   855    1
   749   851   856    1
   750   857   858    1
   751   858   859    1
   752   858   860    1
   753   858   861    1
   754   859   862    1
   755   859   863    1
   756   859   864    1
   757   865   866    1
   758   866   867    1
   759   866   868    1
   760   866   869    1
   761   867   870    1
   762   867   871    1
   763   867   872    1
   764   873   874    1
   765   874   875    1
   766   874   876    1
   767   874   877    1
   768   875   878    1
   769   875   879    1
   770   875   880    1
   771   881   882    1
   772   882   883    1
   773   882   884    1
   774   882   885    1
   775   883   886    1
   776   883   887    1
   777   883   888    1
   778   889   890    1
   779   890   891    1
   780   890   892    1
   781   890   893    1
   782   891   894    1
   783   891   895    1
   784   891   896    1
   785   897   898    1
   786   898   899    1
   787   898   900    1
   788   898   901    1
   789   899   902    1
   790   899   903    1
   791   899   904    1
   792   905   906    1
   793   906   907    1
   794   906   908    1
   795   906   909    1
   796   907   910    1
   797   907   911    1
   798   907   912    1
   799   913   914    1
   800   914   915    1
   801   914   916    1
   802   914   917    1
   803   915   918    1
   804   915   919    1
   805   915   920    1
   806   921   922    1
   807   922   923    1
   808   922   924    1
   809   922   925    1
   810   923   926    1
   811   923   927    1
   812   923   928    1
   813   929   930    1
   814   930   931    1
   815   930   932    1
   816   930   933    1
   817   931   934    1
   818   931   935    1
   819   931   936    1
   820   937   938    1
   821   938   939    1
   822   938   940    1
   823   938   941    1
   824   939   942    1
   825   939   943    1
   826   939   944    1
   827   945   946    1
   828   946   947    1
   829   946   948    1
   830   946   949    1
   831   947   950    1
   832   947   951    1
   833   947   952    1
   834   953   954    1
   835   954   955    1
   836   954   956    1
   837   954   957    1
   838   955   958    1
   839   955   959    1
   840   955   960    1
   841   961   962    1
   842   962   963    1
   843   962   964    1
   844   962   965    1
   845   963   966    1
   846   963   967    1
   847   963   968    1
   848   969   970    1
   849   970   971    1
   850   970   972    1
   851   970   973    1
   852   971   974    1
   853   971   975    1
   854   971   976    1
   855   977   978    1
   856   978   979    1
   857   978   980    1
   858   978   981    1
   859   979   982    1
   860   979   983    1
   861   979   984    1
   862   985   986    1
   863   986   987    1
   864   986   988    1
   865   986   989    1
   866   987   990    1
   867   987   991    1
   868   987   992    1
   869   993   994    1
   870   994   995    1
   871   994   996    1
   872   994   997    1
   873   995   998    1
   874   995   999    1
   875   995  1000    1
   876  1001  1002    1
   877  1002  1003    1
   878  1002  1004    1
   879  1002  1005    1
   880  1003  1006    1
   881  1003  1007    1
   882  1003  1008    1
   883  1009  1010    1
   884  1010  1011    1
   885  1010  1012    1
   886  1010  1013    1
   887  1011  1014    1
   888  1011  1015    1
   889  1011  1016    1
   890  1017  1018    1
   891  1018  1019    1
   892  1018  1020    1
   893  1018  1021    1
   894  1019  1022    1
   895  1019  1023    1
   896  1019  1024    1
   897  1025  1026    1
   898  1026  1027    1
   899  1026  1028    1
   900  1026  1029    1
   901  1027  1030    1
   902  1027  1031    1
   903  1027  1032    1
   904  1033  1034    1
   905  1034  1035    1
   906  1034  1036    1
   907  1034  1037    1
   908  1035  1038    1
   909  1035  1039    1
   910  1035  1040    1
   911  1041  1042    1
   912  1042  1043    1
   913  1042  1044    1
   914  1042  1045    1
   915  1043  1046    1
   916  1043  1047    1
   917  1043  1048    1
   918  1049  1050    1
   919  1050  1051    1
   920  1050  1052    1
   921  1050  1053    1
   922  1051  1054    1
   923  1051  1055    1
   924  1051  1056    1
   925  1057  1058    1
   926  1058  1059    1
   927  1058  1060    1
   928  1058  1061    1
   929  1059  1062    1
   930  1059  1063    1
   931  1059  1064    1
   932  1065  1066    1
   933  1066  1067    1
   934  1066  1068    1
   935  1066  1069    1
   936  1067  1070    1
   937  1067  1071    1
   938  1067  1072    1
   939  1073  1074    1
   940  1074  1075    1
   941  1074  1076    1
   942  1074  1077    1
   943  1075  1078    1
   944  1075  1079    1
   945  1075  1080    1
   946  1081  1082    1
   947  1082  1083    1
   948  1082  1084    1
   949  1082  1085    1
   950  1083  1086    1
   951  1083  1087    1
   952  1083  1088    1
   953  1089  1090    1
   954  1090  1091    1
   955  1090  1092    1
   956  1090  1093    1
   957  1091  1094    1
   958  1091  1095    1
   959  1091  1096    1
   960  1097  1098    1
   961  1098  1099    1
   962  1098  1100    1
   963  1098  1101    1
   964  1099  1102    1
   965  1099  1103    1
   966  1099  1104    1
   967  1105  1106    1
   968  1106  1107    1
   969  1106  1108    1
   970  1106  1109    1
   971  1107  1110    1
   972  1107  1111    1
   973  1107  1112    1
   974  1113  1114    1
   975  1114  1115    1
   976  1114  1116    1
   977  1114  1117    1
   978  1115  1118    1
   979  1115  1119    1
   980  1115  1120    1
   981  1121  1122    1
   982  1122  1123    1
   983  1122  1124    1
   984  1122  1125    1
   985  1123  1126    1
   986  1123  1127    1
   987  1123  1128    1
   988  1129  1130    1
   989  1130  1131    1
   990  1130  1132    1
   991  1130  1133    1
   992  1131  1134    1
   993  1131  1135    1
   994  1131  1136    1
   995  1137  1138    1
   996  1138  1139    1
   997  1138  1140    1
   998  1138  1141    1
   999  1139  1142    1
  1000  1139  1143    1
  1001  1139  1144    1
  1002  1145  1146    1
  1003  1146  1147    1
  1004  1146  1148    1
  1005  1146  1149    1
  1006  1147  1150    1
  1007  1147  1151    1
  1008  1147  1152    1
  1009  1153  1154    1
  1010  1154  1155    1
  1011  1154  1156    1
  1012  1154  1157    1
  1013  1155  1158    1
  1014  1155  1159    1
  1015  1155  1160    1
  1016  1161  1162    1
  1017  1162  1163    1
  1018  1162  1164    1
  1019  1162  1165    1
  1020  1163  1166    1
  1021  1163  1167    1
  1022  1163  1168    1
  1023  1169  1170    1
  1024  1170  1171    1
  1025  1170  1172    1
  1026  1170  1173    1
  1027  1171  1174    1
  1028  1171  1175    1
  1029  1171  1176    1
  1030  1177  1178    1
  1031  1178  1179    1
  1032  1178  1180    1
  1033  1178  1181    1
  1034  1179  1182    1
  1035  1179  1183    1
  1036  1179  1184    1
  1037  1185  1186    1
  1038  1186  1187    1
  1039  1186  1188    1
  1040  1186  1189    1
  1041  1187  1190    1
  1042  1187  1191    1
  1043  1187  1192    1
  1044  1193  1194    1
  1045  1194  1195    1
  1046  1194  1196    1
  1047  1194  1197    1
  1048  1195  1198    1
  1049  1195  1199    1
  1050  1195  1200    1
  1051  1201  1202    1
  1052  1202  1203    1
  1053  1202  1204    1
  1054  1202  1205    1
  1055  1203  1206    1
  1056  1203  1207    1
  1057  1203  1208    1
  1058  1209  1210    1
  1059  1210  1211    1
  1060  1210  1212    1
  1061  1210  1213    1
  1062  1211  1214    1
  1063  1211  1215    1
  1064  1211  1216    1
  1065  1217  1218    1
  1066  1218  1219    1
  1067  1218  1220    1
  1068  1218  1221    1
  1069  1219  1222    1
  1070  1219  1223    1
  1071  1219  1224    1
  1072  1225  1226    1
  1073  1226  1227    1
  1074  1226  1228    1
  1075  1226  1229    1
  1076  1227  1230    1
  1077  1227  1231    1
  1078  1227  1232    1
  1079  1233  1234    1
  1080  1234  1235    1
  1081  1234  1236    1
  1082  1234  1237    1
  1083  1235  1238    1
  1084  1235  1239    1
  1085  1235  1240    1
  1086  1241  1242    1
  1087  1242  1243    1
  1088  1242  1244    1
  1089  1242  1245    1
  1090  1243  1246    1
  1091  1243  1247    1
  1092  1243  1248    1
  1093  1249  1250    1
  1094  1250  1251    1
  1095  1250  1252    1
  1096  1250  1253    1
  1097  1251  1254    1
  1098  1251  1255    1
  1099  1251  1256    1
  1100  1257  1258    1
  1101  1258  1259    1
  1102  1258  1260    1
  1103  1258  1261    1
  1104  1259  1262    1
  1105  1259  1263    1
  1106  1259  1264    1
  1107  1265  1266    1
  1108  1266  1267    1
  1109  1266  1268    1
  1110  1266  1269    1
  1111  1267  1270    1
  1112  1267  1271    1
  1113  1267  1272    1
  1114  1273  1274    1
  1115  1274  1275    1
  1116  1274  1276    1
  1117  1274  1277    1
  1118  1275  1278    1
  1119  1275  1279    1
  1120  1275  1280    1
  1121  1281  1282    1
  1122  1282  1283    1
  1123  1282  1284    1
  1124  1282  1285    1
  1125  1283  1286    1
  1126  1283  1287    1
  1127  1283  1288    1
  1128  1289  1290    1
  1129  1290  1291    1
  1130  1290  1292    1
  1131  1290  1293    1
  1132  1291  1294    1
  1133  1291  1295    1
  1134  1291  1296    1
  1135  1297  1298    1
  1136  1298  1299    1
  1137  1298  1300    1
  1138  1298  1301    1
  1139  1299  1302    1
  1140  1299  1303    1
  1141  1299  1304    1
  1142  1305  1306    1
  1143  1306  1307    1
  1144  1306  1308    1
  1145  1306  1309    1
  1146  1307  1310    1
  1147  1307  1311    1
  1148  1307  1312    1
  1149  1313  1314    1
  1150  1314  1315    1
  1151  1314  1316    1
  1152  1314  1317    1
  1153  1315  1318    1
  1154  1315  1319    1
  1155  1315  1320    1
  1156  1321  1322    1
  1157  1322  1323    1
  1158  1322  1324    1
  1159  1322  1325    1
  1160  1323  1326    1
  1161  1323  1327    1
  1162  1323  1328    1
  1163  1329  1330    1
  1164  1330  1331    1
  1165  1330  1332    1
  1166  1330  1333    1
  1167  1331  1334    1
  1168  1331  1335    1
  1169  1331  1336    1
  1170  1337  1338    1
  1171  1338  1339    1
  1172  1338  1340    1
  1173  1338  1341    1
  1174  1339  1342    1
  1175  1339  1343    1
  1176  1339  1344    1
  1177  1345  1346    1
  1178  1346  1347    1
  1179  1346  1348    1
  1180  1346  1349    1
  1181  1347  1350    1
  1182  1347  1351    1
  1183  1347  1352    1
  1184  1353  1354    1
  1185  1354  1355    1
  1186  1354  1356    1
  1187  1354  1357    1
  1188  1355  1358    1
  1189  1355  1359    1
  1190  1355  1360    1
  1191  1361  1362    1
  1192  1362  1363    1
  1193  1362  1364    1
  1194  1362  1365    1
  1195  1363  1366    1
  1196  1363  1367    1
  1197  1363  1368    1
  1198  1369  1370    1
  1199  1370  1371    1
  1200  1370  1372    1
  1201  1370  1373    1
  1202  1371  1374    1
  1203  1371  1375    1
  1204  1371  1376    1
  1205  1377  1378    1
  1206  1378  1379    1
  1207  1378  1380    1
  1208  1378  1381    1
  1209  1379  1382    1
  1210  1379  1383    1
  1211  1379  1384    1
  1212  1385  1386    1
  1213  1386  1387    1
  1214  1386  1388    1
  1215  1386  1389    1
  1216  1387  1390    1
  1217  1387  1391    1
  1218  1387  1392    1
  1219  1393  1394    1
  1220  1394  1395    1
  1221  1394  1396    1
  1222  1394  1397    1
  1223  1395  1398    1
  1224  1395  1399    1
  1225  1395  1400    1
  1226  1401  1402    1
  1227  1402  1403    1
  1228  1402  1404    1
  1229  1402  1405    1
  1230  1403  1406    1
  1231  1403  1407    1
  1232  1403  1408    1
  1233  1409  1410    1
  1234  1410  1411    1
  1235  1410  1412    1
  1236  1410  1413    1
  1237  1411  1414    1
  1238  1411  1415    1
  1239  1411  1416    1
  1240  1417  1418    1
  1241  1418  1419    1
  1242  1418  1420    1
  1243  1418  1421    1
  1244  1419  1422    1
  1245  1419  1423    1
  1246  1419  1424    1
  1247  1425  1426    1
  1248  1426  1427    1
  1249  1426  1428    1
  1250  1426  1429    1
  1251  1427  1430    1
  1252  1427  1431    1
  1253  1427  1432    1
  1254  1433  1434    1
  1255  1434  1435    1
  1256  1434  1436    1
  1257  1434  1437    1
  1258  1435  1438    1
  1259  1435  1439    1
  1260  1435  1440    1
  1261  1441  1442    1
  1262  1442  1443    1
  1263  1442  1444    1
  1264  1442  1445    1
  1265  1443  1446    1
  1266  1443  1447    1
  1267  1443  1448    1
  1268  1449  1450    1
  1269  1450  1451    1
  1270  1450  1452    1
  1271  1450  1453    1
  1272  1451  1454    1
  1273  1451  1455    1
  1274  1451  1456    1
  1275  1457  1458    1
  1276  1458  1459    1
  1277  1458  1460    1
  1278  1458  1461    1
  1279  1459  1462    1
  1280  1459  1463    1
  1281  1459  1464    1
  1282  1465  1466    1
  1283  1466  1467    1
  1284  1466  1468    1
  1285  1466  1469    1
  1286  1467  1470    1
  1287  1467  1471    1
  1288  1467  1472    1
  1289  1473  1474    1
  1290  1474  1475    1
  1291  1474  1476    1
  1292  1474  1477    1
  1293  1475  1478    1
  1294  1475  1479    1
  1295  1475  1480    1
  1296  1481  1482    1
  1297  1482  1483    1
  1298  1482  1484    1
  1299  1482  1485    1
  1300  1483  1486    1
  1301  1483  1487    1
  1302  1483  1488    1
  1303  1489  1490    1
  1304  1490  1491    1
  1305  1490  1492    1
  1306  1490  1493    1
  1307  1491  1494    1
  1308  1491  1495    1
  1309  1491  1496    1
  1310  1497  1498    1
  1311  1498  1499    1
  1312  1498  1500    1
  1313  1498  1501    1
  1314  1499  1502    1
  1315  1499  1503    1
  1316  1499  1504    1
  1317  1505  1506    1
  1318  1506  1507    1
  1319  1506  1508    1
  1320  1506  1509    1
  1321  1507  1510    1
  1322  1507  1511    1
  1323  1507  1512    1
  1324  1513  1514    1
  1325  1514  1515    1
  1326  1514  1516    1
  1327  1514  1517    1
  1328  1515  1518    1
  1329  1515  1519    1
  1330  1515  1520    1
  1331  1521  1522    1
  1332  1522  1523    1
  1333  1522  1524    1
  1334  1522  1525    1
  1335  1523  1526    1
  1336  1523  1527    1
  1337  1523  1528    1
  1338  1529  1530    1
  1339  1530  1531    1
  1340  1530  1532    1
  1341  1530  1533    1
  1342  1531  1534    1
  1343  1531  1535    1
  1344  1531  1536    1
  1345  1537  1538    1
  1346  1538  1539    1
  1347  1538  1540    1
  1348  1538  1541    1
  1349  1539  1542    1
  1350  1539  1543    1
  1351  1539  1544    1
  1352  1545  1546    1
  1353  1546  1547    1
  1354  1546  1548    1
  1355  1546  1549    1
  1356  1547  1550    1
  1357  1547  1551    1
  1358  1547  1552    1
  1359  1553  1554    1
  1360  1554  1555    1
  1361  1554  1556    1
  1362  1554  1557    1
  1363  1555  1558    1
  1364  1555  1559    1
  1365  1555  1560    1
  1366  1561  1562    1
  1367  1562  1563    1
  1368  1562  1564    1
  1369  1562  1565    1
  1370  1563  1566    1
  1371  1563  1567    1
  1372  1563  1568    1
  1373  1569  1570    1
  1374  1570  1571    1
  1375  1570  1572    1
  1376  1570  1573    1
  1377  1571  1574    1
  1378  1571  1575    1
  1379  1571  1576    1
  1380  1577  1578    1
  1381  1578  1579    1
  1382  1578  1580    1
  1383  1578  1581    1
  1384  1579  1582    1
  1385  1579  1583    1
  1386  1579  1584    1
  1387  1585  1586    1
  1388  1586  1587    1
  1389  1586  1588    1
  1390  1586  1589    1
  1391  1587  1590    1
  1392  1587  1591    1
  1393  1587  1592    1
  1394  1593  1594    1
  1395  1594  1595    1
  1396  1594  1596    1
  1397  1594  1597    1
  1398  1595  1598    1
  1399  1595  1599    1
  1400  1595  1600    1
  1401  1601  1602    1
  1402  1602  1603    1
  1403  1602  1604    1
  1404  1602  1605    1
  1405  1603  1606    1
  1406  1603  1607    1
  1407  1603  1608    1
  1408  1609  1610    1
  1409  1610  1611    1
  1410  1610  1612    1
  1411  1610  1613    1
  1412  1611  1614    1
  1413  1611  1615    1
  1414  1611  1616    1
  1415  1617  1618    1
  1416  1618  1619    1
  1417  1618  1620    1
  1418  1618  1621    1
  1419  1619  1622    1
  1420  1619  1623    1
  1421  1619  1624    1
  1422  1625  1626    1
  1423  1626  1627    1
  1424  1626  1628    1
  1425  1626  1629    1
  1426  1627  1630    1
  1427  1627  1631    1
  1428  1627  1632    1
  1429  1633  1634    1
  1430  1634  1635    1
  1431  1634  1636    1
  1432  1634  1637    1
  1433  1635  1638    1
  1434  1635  1639    1
  1435  1635  1640    1
  1436  1641  1642    1
  1437  1642  1643    1
  1438  1642  1644    1
  1439  1642  1645    1
  1440  1643  1646    1
  1441  1643  1647    1
  1442  1643  1648    1
  1443  1649  1650    1
  1444  1650  1651    1
  1445  1650  1652    1
  1446  1650  1653    1
  1447  1651  1654    1
  1448  1651  1655    1
  1449  1651  1656    1
  1450  1657  1658    1
  1451  1658  1659    1
  1452  1658  1660    1
  1453  1658  1661    1
  1454  1659  1662    1
  1455  1659  1663    1
  1456  1659  1664    1
  1457  1665  1666    1
  1458  1666  1667    1
  1459  1666  1668    1
  1460  1666  1669    1
  1461  1667  1670    1
  1462  1667  1671    1
  1463  1667  1672    1
  1464  1673  1674    1
  1465  1674  1675    1
  1466  1674  1676    1
  1467  1674  1677    1
  1468  1675  1678    1
  1469  1675  1679    1
  1470  1675  1680    1
  1471  1681  1682    1
  1472  1682  1683    1
  1473  1682  1684    1
  1474  1682  1685    1
  1475  1683  1686    1
  1476  1683  1687    1
  1477  1683  1688    1
  1478  1689  1690    1
  1479  1690  1691    1
  1480  1690  1692    1
  1481  1690  1693    1
  1482  1691  1694    1
  1483  1691  1695    1
  1484  1691  1696    1
  1485  1697  1698    1
  1486  1698  1699    1
  1487  1698  1700    1
  1488  1698  1701    1
  1489  1699  1702    1
  1490  1699  1703    1
  1491  1699  1704    1
  1492  1705  1706    1
  1493  1706  1707    1
  1494  1706  1708    1
  1495  1706  1709    1
  1496  1707  1710    1
  1497  1707  1711    1
  1498  1707  1712    1
  1499  1713  1714    1
  1500  1714  1715    1
  1501  1714  1716    1
  1502  1714  1717    1
  1503  1715  1718    1
  1504  1715  1719    1
  1505  1715  1720    1
  1506  1721  1722    1
  1507  1722  1723    1
  1508  1722  1724    1
  1509  1722  1725    1
  1510  1723  1726    1
  1511  1723  1727    1
  1512  1723  1728    1
  1513  1729  1730    1
  1514  1730  1731    1
  1515  1730  1732    1
  1516  1730  1733    1
  1517  1731  1734    1
  1518  1731  1735    1
  1519  1731  1736    1
  1520  1737  1738    1
  1521  1738  1739    1
  1522  1738  1740    1
  1523  1738  1741    1
  1524  1739  1742    1
  1525  1739  1743    1
  1526  1739  1744    1
  1527  1745  1746    1
  1528  1746  1747    1
  1529  1746  1748    1
  1530  1746  1749    1
  1531  1747  1750    1
  1532  1747  1751    1
  1533  1747  1752    1
  1534  1753  1754    1
  1535  1754  1755    1
  1536  1754  1756    1
  1537  1754  1757    1
  1538  1755  1758    1
  1539  1755  1759    1
  1540  1755  1760    1
  1541  1761  1762    1
  1542  1762  1763    1
  1543  1762  1764    1
  1544  1762  1765    1
  1545  1763  1766    1
  1546  1763  1767    1
  1547  1763  1768    1
  1548  1769  1770    1
  1549  1770  1771    1
  1550  1770  1772    1
  1551  1770  1773    1
  1552  1771  1774    1
  1553  1771  1775    1
  1554  1771  1776    1
  1555  1777  1778    1
  1556  1778  1779    1
  1557  1778  1780    1
  1558  1778  1781    1
  1559  1779  1782    1
  1560  1779  1783    1
  1561  1779  1784    1
  1562  1785  1786    1
  1563  1786  1787    1
  1564  1786  1788    1
  1565  1786  1789    1
  1566  1787  1790    1
  1567  1787  1791    1
  1568  1787  1792    1
  1569  1793  1794    1
  1570  1794  1795    1
  1571  1794  1796    1
  1572  1794  1797    1
  1573  1795  1798    1
  1574  1795  1799    1
  1575  1795  1800    1
  1576  1801  1802    1
  1577  1802  1803    1
  1578  1802  1804    1
  1579  1802  1805    1
  1580  1803  1806    1
  1581  1803  1807    1
  1582  1803  1808    1
  1583  1809  1810    1
  1584  1810  1811    1
  1585  1810  1812    1
  1586  1810  1813    1
  1587  1811  1814    1
  1588  1811  1815    1
  1589  1811  1816    1
  1590  1817  1818    1
  1591  1818  1819    1
  1592  1818  1820    1
  1593  1818  1821    1
  1594  1819  1822    1
  1595  1819  1823    1
  1596  1819  1824    1
  1597  1825  1826    1
  1598  1826  1827    1
  1599  1826  1828    1
  1600  1826  1829    1
  1601  1827  1830    1
  1602  1827  1831    1
  1603  1827  1832    1
  1604  1833  1834    1
  1605  1834  1835    1
  1606  1834  1836    1
  1607  1834  1837    1
  1608  1835  1838    1
  1609  1835  1839    1
  1610  1835  1840    1
  1611  1841  1842    1
  1612  1842  1843    1
  1613  1842  1844    1
  1614  1842  1845    1
  1615  1843  1846    1
  1616  1843  1847    1
  1617  1843  1848    1
  1618  1849  1850    1
  1619  1850  1851    1
  1620  1850  1852    1
  1621  1850  1853    1
  1622  1851  1854    1
  1623  1851  1855    1
  1624  1851  1856    1
  1625  1857  1858    1
  1626  1858  1859    1
  1627  1858  1860    1
  1628  1858  1861    1
  1629  1859  1862    1
  1630  1859  1863    1
  1631  1859  1864    1
  1632  1865  1866    1
  1633  1866  1867    1
  1634  1866  1868    1
  1635  1866  1869    1
  1636  1867  1870    1
  1637  1867  1871    1
  1638  1867  1872    1
  1639  1873  1874    1
  1640  1874  1875    1
  1641  1874  1876    1
  1642  1874  1877    1
  1643  1875  1878    1
  1644  1875  1879    1
  1645  1875  1880    1
  1646  1881  1882    1
  1647  1882  1883    1
  1648  1882  1884    1
  1649  1882  1885    1
  1650  1883  1886    1
  1651  1883  1887    1
  1652  1883  1888    1
  1653  1889  1890    1
  1654  1890  1891    1
  1655  1890  1892    1
  1656  1890  1893    1
  1657  1891  1894    1
  1658  1891  1895    1
  1659  1891  1896    1
  1660  1897  1898    1
  1661  1898  1899    1
  1662  1898  1900    1
  1663  1898  1901    1
  1664  1899  1902    1
  1665  1899  1903    1
  1666  1899  1904    1
  1667  1905  1906    1
  1668  1906  1907    1
  1669  1906  1908    1
  1670  1906  1909    1
  1671  1907  1910    1
  1672  1907  1911    1
  1673  1907  1912    1
  1674  1913  1914    1
  1675  1914  1915    1
  1676  1914  1916    1
  1677  1914  1917    1
  1678  1915  1918    1
  1679  1915  1919    1
  1680  1915  1920    1
  1681  1921  1922    1
  1682  1922  1923    1
  1683  1922  1924    1
  1684  1922  1925    1
  1685  1923  1926    1
  1686  1923  1927    1
  1687  1923  1928    1
  1688  1929  1930    1
  1689  1930  1931    1
  1690  1930  1932    1
  1691  1930  1933    1
  1692  1931  1934    1
  1693  1931  1935    1
  1694  1931  1936    1
  1695  1937  1938    1
  1696  1938  1939    1
  1697  1938  1940    1
  1698  1938  1941    1
  1699  1939  1942    1
  1700  1939  1943    1
  1701  1939  1944    1
  1702  1945  1946    1
  1703  1946  1947    1
  1704  1946  1948    1
  1705  1946  1949    1
  1706  1947  1950    1
  1707  1947  1951    1
  1708  1947  1952    1
  1709  1953  1954    1
  1710  1954  1955    1
  1711  1954  1956    1
  1712  1954  1957    1
  1713  1955  1958    1
  1714  1955  1959    1
  1715  1955  1960    1
  1716  1961  1962    1
  1717  1962  1963    1
  1718  1962  1964    1
  1719  1962  1965    1
  1720  1963  1966    1
  1721  1963  1967    1
  1722  1963  1968    1
  1723  1969  1970    1
  1724  1970  1971    1
  1725  1970  1972    1
  1726  1970  1973    1
  1727  1971  1974    1
  1728  1971  1975    1
  1729  1971  1976    1
  1730  1977  1978    1
  1731  1978  1979    1
  1732  1978  1980    1
  1733  1978  1981    1
  1734  1979  1982    1
  1735  1979  1983    1
  1736  1979  1984    1
  1737  1985  1986    1
  1738  1986  1987    1
  1739  1986  1988    1
  1740  1986  1989    1
  1741  1987  1990    1
  1742  1987  1991    1
  1743  1987  1992    1
  1744  1993  1994    1
  1745  1994  1995    1
  1746  1994  1996    1
  1747  1994  1997    1
  1748  1995  1998    1
  1749  1995  1999    1
  1750  1995  2000    1
  1751  2001  2002    1
  1752  2002  2003    1
  1753  2002  2004    1
  1754  2002  2005    1
  1755  2003  2006    1
  1756  2003  2007    1
  1757  2003  2008    1
  1758  2009  2010    1
  1759  2010  2011    1
  1760  2010  2012    1
  1761  2010  2013    1
  1762  2011  2014    1
  1763  2011  2015    1
  1764  2011  2016    1
  1765  2017  2018    1
  1766  2018  2019    1
  1767  2018  2020    1
  1768  2018  2021    1
  1769  2019  2022    1
  1770  2019  2023    1
  1771  2019  2024    1
  1772  2025  2026    1
  1773  2026  2027    1
  1774  2026  2028    1
  1775  2026  2029    1
  1776  2027  2030    1
  1777  2027  2031    1
  1778  2027  2032    1
  1779  2033  2034    1
  1780  2034  2035    1
  1781  2034  2036    1
  1782  2034  2037    1
  1783  2035  2038    1
  1784  2035  2039    1
  1785  2035  2040    1
  1786  2041  2042    1
  1787  2042  2043    1
  1788  2042  2044    1
  1789  2042  2045    1
  1790  2043  2046    1
  1791  2043  2047    1
  1792  2043  2048    1
  1793  2049  2050    1
  1794  2050  2051    1
  1795  2050  2052    1
  1796  2050  2053    1
  1797  2051  2054    1
  1798  2051  2055    1
  1799  2051  2056    1
  1800  2057  2058    1
  1801  2058  2059    1
  1802  2058  2060    1
  1803  2058  2061    1
  1804  2059  2062    1
  1805  2059  2063    1
  1806  2059  2064    1
  1807  2065  2066    1
  1808  2066  2067    1
  1809  2066  2068    1
  1810  2066  2069    1
  1811  2067  2070    1
  1812  2067  2071    1
  1813  2067  2072    1
