@<TRIPOS>MOLECULE
*****
 1688 1477 0 0 0
SMALL
GASTEIGER

@<TRIPOS>ATOM
      1 CL          2.0645    2.5685    1.4689 Cl      1  UNL1       -0.1257
      2 C           0.5220    1.6868    1.4689 C.3     1  UNL1        0.0198
      3 C          -0.6425    2.6546    1.4689 C.3     1  UNL1       -0.0517
      4 H           0.4974    1.0497    0.5803 H       1  UNL1        0.0427
      5 H           0.4974    1.0497    2.3574 H       1  UNL1        0.0427
      6 H          -1.5894    2.1053    1.4689 H       1  UNL1        0.0241
      7 H          -0.6252    3.2958    2.3563 H       1  UNL1        0.0241
      8 H          -0.6252    3.2958    0.5815 H       1  UNL1        0.0241
      9 CL          2.0686    2.5767    5.0840 Cl      2  UNL2       -0.1257
     10 C           0.5261    1.6950    5.0840 C.3     2  UNL2        0.0198
     11 C          -0.6384    2.6628    5.0840 C.3     2  UNL2       -0.0517
     12 H           0.5015    1.0579    4.1954 H       2  UNL2        0.0427
     13 H           0.5015    1.0579    5.9725 H       2  UNL2        0.0427
     14 H          -1.5853    2.1135    5.0840 H       2  UNL2        0.0241
     15 H          -0.6211    3.3040    5.9714 H       2  UNL2        0.0241
     16 H          -0.6211    3.3040    4.1966 H       2  UNL2        0.0241
     17 CL          2.0645    0.8593    9.4784 Cl      3  UNL3       -0.1257
     18 C           0.5220   -0.0224    9.4784 C.3     3  UNL3        0.0198
     19 C          -0.6425    0.9454    9.4784 C.3     3  UNL3       -0.0517
     20 H           0.4974   -0.6595    8.5898 H       3  UNL3        0.0427
     21 H           0.4974   -0.6595   10.3669 H       3  UNL3        0.0427
     22 H          -1.5894    0.3961    9.4784 H       3  UNL3        0.0241
     23 H          -0.6252    1.5866   10.3658 H       3  UNL3        0.0241
     24 H          -0.6252    1.5866    8.5910 H       3  UNL3        0.0241
     25 CL          2.0645    6.3558    1.7065 Cl      4  UNL4       -0.1257
     26 C           0.5220    5.4741    1.7065 C.3     4  UNL4        0.0198
     27 C          -0.6425    6.4419    1.7065 C.3     4  UNL4       -0.0517
     28 H           0.4974    4.8370    0.8179 H       4  UNL4        0.0427
     29 H           0.4974    4.8370    2.5950 H       4  UNL4        0.0427
     30 H          -1.5894    5.8926    1.7065 H       4  UNL4        0.0241
     31 H          -0.6252    7.0831    2.5939 H       4  UNL4        0.0241
     32 H          -0.6252    7.0831    0.8191 H       4  UNL4        0.0241
     33 CL          2.0645    6.3558    5.2637 Cl      5  UNL5       -0.1257
     34 C           0.5220    5.4741    5.2637 C.3     5  UNL5        0.0198
     35 C          -0.6425    6.4419    5.2637 C.3     5  UNL5       -0.0517
     36 H           0.4974    4.8370    4.3751 H       5  UNL5        0.0427
     37 H           0.4974    4.8370    6.1522 H       5  UNL5        0.0427
     38 H          -1.5894    5.8926    5.2637 H       5  UNL5        0.0241
     39 H          -0.6252    7.0831    6.1511 H       5  UNL5        0.0241
     40 H          -0.6252    7.0831    4.3763 H       5  UNL5        0.0241
     41 CL          2.0645    4.7286    8.4154 Cl      6  UNL6       -0.1257
     42 C           0.5220    3.8469    8.4154 C.3     6  UNL6        0.0198
     43 C          -0.6425    4.8147    8.4154 C.3     6  UNL6       -0.0517
     44 H           0.4974    3.2098    7.5268 H       6  UNL6        0.0427
     45 H           0.4974    3.2098    9.3039 H       6  UNL6        0.0427
     46 H          -1.5894    4.2654    8.4154 H       6  UNL6        0.0241
     47 H          -0.6252    5.4559    9.3028 H       6  UNL6        0.0241
     48 H          -0.6252    5.4559    7.5280 H       6  UNL6        0.0241
     49 CL          2.0645    6.3558   11.5553 Cl      7  UNL7       -0.1257
     50 C           0.5220    5.4741   11.5553 C.3     7  UNL7        0.0198
     51 C          -0.6425    6.4419   11.5553 C.3     7  UNL7       -0.0517
     52 H           0.4974    4.8370   10.6667 H       7  UNL7        0.0427
     53 H           0.4974    4.8370   12.4438 H       7  UNL7        0.0427
     54 H          -1.5894    5.8926   11.5553 H       7  UNL7        0.0241
     55 H          -0.6252    7.0831   12.4427 H       7  UNL7        0.0241
     56 H          -0.6252    7.0831   10.6679 H       7  UNL7        0.0241
     57 CL          2.0645   10.1350    1.3737 Cl      8  UNL8       -0.1257
     58 C           0.5220    9.2533    1.3737 C.3     8  UNL8        0.0198
     59 C          -0.6425   10.2211    1.3737 C.3     8  UNL8       -0.0517
     60 H           0.4974    8.6162    0.4851 H       8  UNL8        0.0427
     61 H           0.4974    8.6162    2.2622 H       8  UNL8        0.0427
     62 H          -1.5894    9.6718    1.3737 H       8  UNL8        0.0241
     63 H          -0.6252   10.8623    2.2611 H       8  UNL8        0.0241
     64 H          -0.6252   10.8623    0.4863 H       8  UNL8        0.0241
     65 CL          2.0645   10.1350    4.9283 Cl      9  UNL9       -0.1257
     66 C           0.5220    9.2533    4.9283 C.3     9  UNL9        0.0198
     67 C          -0.6425   10.2211    4.9283 C.3     9  UNL9       -0.0517
     68 H           0.4974    8.6162    4.0397 H       9  UNL9        0.0427
     69 H           0.4974    8.6162    5.8168 H       9  UNL9        0.0427
     70 H          -1.5894    9.6718    4.9283 H       9  UNL9        0.0241
     71 H          -0.6252   10.8623    5.8157 H       9  UNL9        0.0241
     72 H          -0.6252   10.8623    4.0409 H       9  UNL9        0.0241
     73 CL         -0.2195    8.0173    8.2812 Cl     10  UNL10      -0.1257
     74 C           0.1576    9.7535    8.2812 C.3    10  UNL10       0.0198
     75 C           1.6561    9.9710    8.2812 C.3    10  UNL10      -0.0517
     76 H          -0.2993   10.1981    7.3926 H      10  UNL10       0.0427
     77 H          -0.2993   10.1981    9.1697 H      10  UNL10       0.0427
     78 H           1.8817   11.0422    8.2812 H      10  UNL10       0.0241
     79 H           2.1210    9.5291    9.1686 H      10  UNL10       0.0241
     80 H           2.1210    9.5291    7.3938 H      10  UNL10       0.0241
     81 CL          2.1300   10.1350   11.6392 Cl     11  UNL11      -0.1257
     82 C           0.5875    9.2533   11.6392 C.3    11  UNL11       0.0198
     83 C          -0.5770   10.2211   11.6392 C.3    11  UNL11      -0.0517
     84 H           0.5629    8.6162   10.7506 H      11  UNL11       0.0427
     85 H           0.5629    8.6162   12.5277 H      11  UNL11       0.0427
     86 H          -1.5239    9.6718   11.6392 H      11  UNL11       0.0241
     87 H          -0.5597   10.8623   12.5266 H      11  UNL11       0.0241
     88 H          -0.5597   10.8623   10.7518 H      11  UNL11       0.0241
     89 CL          2.0645   13.9142    1.4172 Cl     12  UNL12      -0.1257
     90 C           0.5220   13.0325    1.4172 C.3    12  UNL12       0.0198
     91 C          -0.6425   14.0003    1.4172 C.3    12  UNL12      -0.0517
     92 H           0.4974   12.3954    0.5286 H      12  UNL12       0.0427
     93 H           0.4974   12.3954    2.3057 H      12  UNL12       0.0427
     94 H          -1.5894   13.4510    1.4172 H      12  UNL12       0.0241
     95 H          -0.6252   14.6415    2.3046 H      12  UNL12       0.0241
     96 H          -0.6252   14.6415    0.5298 H      12  UNL12       0.0241
     97 CL         -0.3887   15.4483    4.5843 Cl     13  UNL13      -0.1257
     98 C           0.8635   14.1879    4.5843 C.3    13  UNL13       0.0198
     99 C           0.2314   12.8119    4.5843 C.3    13  UNL13      -0.0517
    100 H           1.4851   14.3297    3.6957 H      13  UNL13       0.0427
    101 H           1.4851   14.3297    5.4728 H      13  UNL13       0.0427
    102 H           1.0079   12.0403    4.5843 H      13  UNL13       0.0241
    103 H          -0.3922   12.6621    5.4717 H      13  UNL13       0.0241
    104 H          -0.3922   12.6621    3.6969 H      13  UNL13       0.0241
    105 CL          1.9784   13.9142    7.8460 Cl     14  UNL14      -0.1257
    106 C           0.4359   13.0325    7.8460 C.3    14  UNL14       0.0198
    107 C          -0.7286   14.0003    7.8460 C.3    14  UNL14      -0.0517
    108 H           0.4113   12.3954    6.9574 H      14  UNL14       0.0427
    109 H           0.4113   12.3954    8.7345 H      14  UNL14       0.0427
    110 H          -1.6755   13.4510    7.8460 H      14  UNL14       0.0241
    111 H          -0.7113   14.6415    8.7334 H      14  UNL14       0.0241
    112 H          -0.7113   14.6415    6.9586 H      14  UNL14       0.0241
    113 CL          2.4142   13.9142   11.5184 Cl     15  UNL15      -0.1257
    114 C           0.8717   13.0325   11.5184 C.3    15  UNL15       0.0198
    115 C          -0.2928   14.0003   11.5184 C.3    15  UNL15      -0.0517
    116 H           0.8471   12.3954   10.6298 H      15  UNL15       0.0427
    117 H           0.8471   12.3954   12.4069 H      15  UNL15       0.0427
    118 H          -1.2397   13.4510   11.5184 H      15  UNL15       0.0241
    119 H          -0.2755   14.6415   12.4058 H      15  UNL15       0.0241
    120 H          -0.2755   14.6415   10.6310 H      15  UNL15       0.0241
    121 CL          2.3225   17.4600    1.0346 Cl     16  UNL16      -0.1257
    122 C           0.7800   16.5783    1.0346 C.3    16  UNL16       0.0198
    123 C          -0.3845   17.5461    1.0346 C.3    16  UNL16      -0.0517
    124 H           0.7554   15.9412    0.1460 H      16  UNL16       0.0427
    125 H           0.7554   15.9412    1.9231 H      16  UNL16       0.0427
    126 H          -1.3314   16.9968    1.0346 H      16  UNL16       0.0241
    127 H          -0.3672   18.1873    1.9220 H      16  UNL16       0.0241
    128 H          -0.3672   18.1873    0.1472 H      16  UNL16       0.0241
    129 CL          2.0645   17.6934    9.4784 Cl     17  UNL17      -0.1257
    130 C           0.5220   16.8117    9.4784 C.3    17  UNL17       0.0198
    131 C          -0.6425   17.7795    9.4784 C.3    17  UNL17      -0.0517
    132 H           0.4974   16.1746    8.5898 H      17  UNL17       0.0427
    133 H           0.4974   16.1746   10.3669 H      17  UNL17       0.0427
    134 H          -1.5894   17.2302    9.4784 H      17  UNL17       0.0241
    135 H          -0.6252   18.4207   10.3658 H      17  UNL17       0.0241
    136 H          -0.6252   18.4207    8.5910 H      17  UNL17       0.0241
    137 CL          1.1904   20.3791    3.0390 Cl     18  UNL18      -0.1257
    138 C          -0.3521   20.7742    2.2507 C.3    18  UNL18       0.0198
    139 C          -1.5166   20.3405    3.1159 C.3    18  UNL18      -0.0517
    140 H          -0.3767   21.8541    2.0793 H      18  UNL18       0.0427
    141 H          -0.3767   20.2653    1.2831 H      18  UNL18       0.0427
    142 H          -2.4635   20.5867    2.6249 H      18  UNL18       0.0241
    143 H          -1.4993   19.2599    3.2916 H      18  UNL18       0.0241
    144 H          -1.4993   20.8466    4.0868 H      18  UNL18       0.0241
    145 CL          2.2160   21.4726    6.0979 Cl     19  UNL19      -0.1257
    146 C           0.6735   20.5909    6.0979 C.3    19  UNL19       0.0198
    147 C          -0.4910   21.5587    6.0979 C.3    19  UNL19      -0.0517
    148 H           0.6489   19.9538    5.2093 H      19  UNL19       0.0427
    149 H           0.6489   19.9538    6.9864 H      19  UNL19       0.0427
    150 H          -1.4379   21.0094    6.0979 H      19  UNL19       0.0241
    151 H          -0.4737   22.1999    6.9853 H      19  UNL19       0.0241
    152 H          -0.4737   22.1999    5.2105 H      19  UNL19       0.0241
    153 CL          1.0440   21.6326    9.1226 Cl     20  UNL20      -0.1257
    154 C          -0.4985   20.7509    9.1226 C.3    20  UNL20       0.0198
    155 C          -1.6630   21.7187    9.1226 C.3    20  UNL20      -0.0517
    156 H          -0.5231   20.1138    8.2340 H      20  UNL20       0.0427
    157 H          -0.5231   20.1138   10.0111 H      20  UNL20       0.0427
    158 H          -2.6099   21.1694    9.1226 H      20  UNL20       0.0241
    159 H          -1.6457   22.3599   10.0100 H      20  UNL20       0.0241
    160 H          -1.6457   22.3599    8.2352 H      20  UNL20       0.0241
    161 CL         -1.6291   26.1099    1.0834 Cl     21  UNL21      -0.1257
    162 C           0.0584   25.5538    1.0834 C.3    21  UNL21       0.0198
    163 C           0.1186   24.0409    1.0834 C.3    21  UNL21      -0.0517
    164 H           0.5482   25.9619    0.1948 H      21  UNL21       0.0427
    165 H           0.5482   25.9619    1.9719 H      21  UNL21       0.0427
    166 H           1.1605   23.7049    1.0834 H      21  UNL21       0.0241
    167 H          -0.3694   23.6246    1.9708 H      21  UNL21       0.0241
    168 H          -0.3694   23.6246    0.1960 H      21  UNL21       0.0241
    169 CL          2.1054   25.2518    4.3446 Cl     22  UNL22      -0.1257
    170 C           0.5629   24.3701    4.3446 C.3    22  UNL22       0.0198
    171 C          -0.6016   25.3379    4.3446 C.3    22  UNL22      -0.0517
    172 H           0.5383   23.7330    3.4560 H      22  UNL22       0.0427
    173 H           0.5383   23.7330    5.2331 H      22  UNL22       0.0427
    174 H          -1.5485   24.7886    4.3446 H      22  UNL22       0.0241
    175 H          -0.5843   25.9791    5.2320 H      22  UNL22       0.0241
    176 H          -0.5843   25.9791    3.4572 H      22  UNL22       0.0241
    177 CL          2.0645   25.2518    7.9310 Cl     23  UNL23      -0.1257
    178 C           0.5220   24.3701    7.9310 C.3    23  UNL23       0.0198
    179 C          -0.6425   25.3379    7.9310 C.3    23  UNL23      -0.0517
    180 H           0.4974   23.7330    7.0424 H      23  UNL23       0.0427
    181 H           0.4974   23.7330    8.8195 H      23  UNL23       0.0427
    182 H          -1.5894   24.7886    7.9310 H      23  UNL23       0.0241
    183 H          -0.6252   25.9791    8.8184 H      23  UNL23       0.0241
    184 H          -0.6252   25.9791    7.0436 H      23  UNL23       0.0241
    185 CL          2.2245   25.2518   11.5225 Cl     24  UNL24      -0.1257
    186 C           0.6820   24.3701   11.5225 C.3    24  UNL24       0.0198
    187 C          -0.4825   25.3379   11.5225 C.3    24  UNL24      -0.0517
    188 H           0.6574   23.7330   10.6339 H      24  UNL24       0.0427
    189 H           0.6574   23.7330   12.4110 H      24  UNL24       0.0427
    190 H          -1.4294   24.7886   11.5225 H      24  UNL24       0.0241
    191 H          -0.4652   25.9791   12.4099 H      24  UNL24       0.0241
    192 H          -0.4652   25.9791   10.6351 H      24  UNL24       0.0241
    193 CL          2.0645   29.2316    1.1218 Cl     25  UNL25      -0.1257
    194 C           0.5220   28.3499    1.1218 C.3    25  UNL25       0.0198
    195 C          -0.6425   29.3177    1.1218 C.3    25  UNL25      -0.0517
    196 H           0.4974   27.7128    0.2332 H      25  UNL25       0.0427
    197 H           0.4974   27.7128    2.0103 H      25  UNL25       0.0427
    198 H          -1.5894   28.7684    1.1218 H      25  UNL25       0.0241
    199 H          -0.6252   29.9589    2.0092 H      25  UNL25       0.0241
    200 H          -0.6252   29.9589    0.2344 H      25  UNL25       0.0241
    201 CL          2.0645   29.0310    4.5843 Cl     26  UNL26      -0.1257
    202 C           0.5220   28.1493    4.5843 C.3    26  UNL26       0.0198
    203 C          -0.6425   29.1171    4.5843 C.3    26  UNL26      -0.0517
    204 H           0.4974   27.5122    3.6957 H      26  UNL26       0.0427
    205 H           0.4974   27.5122    5.4728 H      26  UNL26       0.0427
    206 H          -1.5894   28.5678    4.5843 H      26  UNL26       0.0241
    207 H          -0.6252   29.7583    5.4717 H      26  UNL26       0.0241
    208 H          -0.6252   29.7583    3.6969 H      26  UNL26       0.0241
    209 CL          2.0645   28.8303    8.2116 Cl     27  UNL27      -0.1257
    210 C           0.5220   27.9486    8.2116 C.3    27  UNL27       0.0198
    211 C          -0.6425   28.9164    8.2116 C.3    27  UNL27      -0.0517
    212 H           0.4974   27.3115    7.3230 H      27  UNL27       0.0427
    213 H           0.4974   27.3115    9.1001 H      27  UNL27       0.0427
    214 H          -1.5894   28.3671    8.2116 H      27  UNL27       0.0241
    215 H          -0.6252   29.5576    9.0990 H      27  UNL27       0.0241
    216 H          -0.6252   29.5576    7.3242 H      27  UNL27       0.0241
    217 CL          7.5928    2.5767   -0.6632 Cl     28  UNL28      -0.1257
    218 C           6.0503    1.6950   -0.6632 C.3    28  UNL28       0.0198
    219 C           4.8858    2.6628   -0.6632 C.3    28  UNL28      -0.0517
    220 H           6.0257    1.0579   -1.5518 H      28  UNL28       0.0427
    221 H           6.0257    1.0579    0.2253 H      28  UNL28       0.0427
    222 H           3.9389    2.1135   -0.6632 H      28  UNL28       0.0241
    223 H           4.9031    3.3040    0.2242 H      28  UNL28       0.0241
    224 H           4.9031    3.3040   -1.5506 H      28  UNL28       0.0241
    225 CL          7.5928    2.5767    2.7173 Cl     29  UNL29      -0.1257
    226 C           6.0503    1.6950    2.7173 C.3    29  UNL29       0.0198
    227 C           4.8858    2.6628    2.7173 C.3    29  UNL29      -0.0517
    228 H           6.0257    1.0579    1.8287 H      29  UNL29       0.0427
    229 H           6.0257    1.0579    3.6058 H      29  UNL29       0.0427
    230 H           3.9389    2.1135    2.7173 H      29  UNL29       0.0241
    231 H           4.9031    3.3040    3.6047 H      29  UNL29       0.0241
    232 H           4.9031    3.3040    1.8299 H      29  UNL29       0.0241
    233 CL          7.5928    2.5767    6.0979 Cl     30  UNL30      -0.1257
    234 C           6.0503    1.6950    6.0979 C.3    30  UNL30       0.0198
    235 C           4.8858    2.6628    6.0979 C.3    30  UNL30      -0.0517
    236 H           6.0257    1.0579    5.2093 H      30  UNL30       0.0427
    237 H           6.0257    1.0579    6.9864 H      30  UNL30       0.0427
    238 H           3.9389    2.1135    6.0979 H      30  UNL30       0.0241
    239 H           4.9031    3.3040    6.9853 H      30  UNL30       0.0241
    240 H           4.9031    3.3040    5.2105 H      30  UNL30       0.0241
    241 CL          7.5928    2.5767    9.4784 Cl     31  UNL31      -0.1257
    242 C           6.0503    1.6950    9.4784 C.3    31  UNL31       0.0198
    243 C           4.8858    2.6628    9.4784 C.3    31  UNL31      -0.0517
    244 H           6.0257    1.0579    8.5898 H      31  UNL31       0.0427
    245 H           6.0257    1.0579   10.3669 H      31  UNL31       0.0427
    246 H           3.9389    2.1135    9.4784 H      31  UNL31       0.0241
    247 H           4.9031    3.3040   10.3658 H      31  UNL31       0.0241
    248 H           4.9031    3.3040    8.5910 H      31  UNL31       0.0241
    249 CL          7.5928    6.3558   -0.6632 Cl     32  UNL32      -0.1257
    250 C           6.0503    5.4741   -0.6632 C.3    32  UNL32       0.0198
    251 C           4.8858    6.4419   -0.6632 C.3    32  UNL32      -0.0517
    252 H           6.0257    4.8370   -1.5518 H      32  UNL32       0.0427
    253 H           6.0257    4.8370    0.2253 H      32  UNL32       0.0427
    254 H           3.9389    5.8926   -0.6632 H      32  UNL32       0.0241
    255 H           4.9031    7.0831    0.2242 H      32  UNL32       0.0241
    256 H           4.9031    7.0831   -1.5506 H      32  UNL32       0.0241
    257 CL          7.5928    6.3558    2.7173 Cl     33  UNL33      -0.1257
    258 C           6.0503    5.4741    2.7173 C.3    33  UNL33       0.0198
    259 C           4.8858    6.4419    2.7173 C.3    33  UNL33      -0.0517
    260 H           6.0257    4.8370    1.8287 H      33  UNL33       0.0427
    261 H           6.0257    4.8370    3.6058 H      33  UNL33       0.0427
    262 H           3.9389    5.8926    2.7173 H      33  UNL33       0.0241
    263 H           4.9031    7.0831    3.6047 H      33  UNL33       0.0241
    264 H           4.9031    7.0831    1.8299 H      33  UNL33       0.0241
    265 CL          7.5928    6.3558    6.0979 Cl     34  UNL34      -0.1257
    266 C           6.0503    5.4741    6.0979 C.3    34  UNL34       0.0198
    267 C           4.8858    6.4419    6.0979 C.3    34  UNL34      -0.0517
    268 H           6.0257    4.8370    5.2093 H      34  UNL34       0.0427
    269 H           6.0257    4.8370    6.9864 H      34  UNL34       0.0427
    270 H           3.9389    5.8926    6.0979 H      34  UNL34       0.0241
    271 H           4.9031    7.0831    6.9853 H      34  UNL34       0.0241
    272 H           4.9031    7.0831    5.2105 H      34  UNL34       0.0241
    273 CL          7.5928    6.3558    9.4784 Cl     35  UNL35      -0.1257
    274 C           6.0503    5.4741    9.4784 C.3    35  UNL35       0.0198
    275 C           4.8858    6.4419    9.4784 C.3    35  UNL35      -0.0517
    276 H           6.0257    4.8370    8.5898 H      35  UNL35       0.0427
    277 H           6.0257    4.8370   10.3669 H      35  UNL35       0.0427
    278 H           3.9389    5.8926    9.4784 H      35  UNL35       0.0241
    279 H           4.9031    7.0831   10.3658 H      35  UNL35       0.0241
    280 H           4.9031    7.0831    8.5910 H      35  UNL35       0.0241
    281 CL          7.5928   10.1350   -0.6837 Cl     36  UNL36      -0.1257
    282 C           6.0503    9.2533   -0.6837 C.3    36  UNL36       0.0198
    283 C           4.8858   10.2211   -0.6837 C.3    36  UNL36      -0.0517
    284 H           6.0257    8.6162   -1.5723 H      36  UNL36       0.0427
    285 H           6.0257    8.6162    0.2048 H      36  UNL36       0.0427
    286 H           3.9389    9.6718   -0.6837 H      36  UNL36       0.0241
    287 H           4.9031   10.8623    0.2037 H      36  UNL36       0.0241
    288 H           4.9031   10.8623   -1.5711 H      36  UNL36       0.0241
    289 CL          7.5928   10.1350    2.7173 Cl     37  UNL37      -0.1257
    290 C           6.0503    9.2533    2.7173 C.3    37  UNL37       0.0198
    291 C           4.8858   10.2211    2.7173 C.3    37  UNL37      -0.0517
    292 H           6.0257    8.6162    1.8287 H      37  UNL37       0.0427
    293 H           6.0257    8.6162    3.6058 H      37  UNL37       0.0427
    294 H           3.9389    9.6718    2.7173 H      37  UNL37       0.0241
    295 H           4.9031   10.8623    3.6047 H      37  UNL37       0.0241
    296 H           4.9031   10.8623    1.8299 H      37  UNL37       0.0241
    297 CL          7.6696   10.7330    6.0979 Cl     38  UNL38      -0.1257
    298 C           6.1271    9.8513    6.0979 C.3    38  UNL38       0.0198
    299 C           4.9626   10.8191    6.0979 C.3    38  UNL38      -0.0517
    300 H           6.1025    9.2142    5.2093 H      38  UNL38       0.0427
    301 H           6.1025    9.2142    6.9864 H      38  UNL38       0.0427
    302 H           4.0157   10.2698    6.0979 H      38  UNL38       0.0241
    303 H           4.9799   11.4603    6.9853 H      38  UNL38       0.0241
    304 H           4.9799   11.4603    5.2105 H      38  UNL38       0.0241
    305 CL          7.5928   10.1350    9.4784 Cl     39  UNL39      -0.1257
    306 C           6.0503    9.2533    9.4784 C.3    39  UNL39       0.0198
    307 C           4.8858   10.2211    9.4784 C.3    39  UNL39      -0.0517
    308 H           6.0257    8.6162    8.5898 H      39  UNL39       0.0427
    309 H           6.0257    8.6162   10.3669 H      39  UNL39       0.0427
    310 H           3.9389    9.6718    9.4784 H      39  UNL39       0.0241
    311 H           4.9031   10.8623   10.3658 H      39  UNL39       0.0241
    312 H           4.9031   10.8623    8.5910 H      39  UNL39       0.0241
    313 CL          7.5928   13.9695   -0.6837 Cl     40  UNL40      -0.1257
    314 C           6.0503   13.0878   -0.6837 C.3    40  UNL40       0.0198
    315 C           4.8858   14.0556   -0.6837 C.3    40  UNL40      -0.0517
    316 H           6.0257   12.4507   -1.5723 H      40  UNL40       0.0427
    317 H           6.0257   12.4507    0.2048 H      40  UNL40       0.0427
    318 H           3.9389   13.5063   -0.6837 H      40  UNL40       0.0241
    319 H           4.9031   14.6968    0.2037 H      40  UNL40       0.0241
    320 H           4.9031   14.6968   -1.5711 H      40  UNL40       0.0241
    321 CL          7.5928   13.9101    2.7173 Cl     41  UNL41      -0.1257
    322 C           6.0503   13.0284    2.7173 C.3    41  UNL41       0.0198
    323 C           4.8858   13.9962    2.7173 C.3    41  UNL41      -0.0517
    324 H           6.0257   12.3913    1.8287 H      41  UNL41       0.0427
    325 H           6.0257   12.3913    3.6058 H      41  UNL41       0.0427
    326 H           3.9389   13.4469    2.7173 H      41  UNL41       0.0241
    327 H           4.9031   14.6374    3.6047 H      41  UNL41       0.0241
    328 H           4.9031   14.6374    1.8299 H      41  UNL41       0.0241
    329 CL          7.2413   14.5967    6.0979 Cl     42  UNL42      -0.1257
    330 C           5.6988   13.7150    6.0979 C.3    42  UNL42       0.0198
    331 C           4.5343   14.6828    6.0979 C.3    42  UNL42      -0.0517
    332 H           5.6742   13.0779    5.2093 H      42  UNL42       0.0427
    333 H           5.6742   13.0779    6.9864 H      42  UNL42       0.0427
    334 H           3.5874   14.1335    6.0979 H      42  UNL42       0.0241
    335 H           4.5516   15.3240    6.9853 H      42  UNL42       0.0241
    336 H           4.5516   15.3240    5.2105 H      42  UNL42       0.0241
    337 CL          7.7528   13.7542    9.4784 Cl     43  UNL43      -0.1257
    338 C           6.2103   12.8725    9.4784 C.3    43  UNL43       0.0198
    339 C           5.0458   13.8403    9.4784 C.3    43  UNL43      -0.0517
    340 H           6.1857   12.2354    8.5898 H      43  UNL43       0.0427
    341 H           6.1857   12.2354   10.3669 H      43  UNL43       0.0427
    342 H           4.0989   13.2910    9.4784 H      43  UNL43       0.0241
    343 H           5.0631   14.4815   10.3658 H      43  UNL43       0.0241
    344 H           5.0631   14.4815    8.5910 H      43  UNL43       0.0241
    345 CL          7.5928   17.6934   -0.6632 Cl     44  UNL44      -0.1257
    346 C           6.0503   16.8117   -0.6632 C.3    44  UNL44       0.0198
    347 C           4.8858   17.7795   -0.6632 C.3    44  UNL44      -0.0517
    348 H           6.0257   16.1746   -1.5518 H      44  UNL44       0.0427
    349 H           6.0257   16.1746    0.2253 H      44  UNL44       0.0427
    350 H           3.9389   17.2302   -0.6632 H      44  UNL44       0.0241
    351 H           4.9031   18.4207    0.2242 H      44  UNL44       0.0241
    352 H           4.9031   18.4207   -1.5506 H      44  UNL44       0.0241
    353 CL          3.9033   18.6252    2.4798 Cl     45  UNL45      -0.1257
    354 C           5.5908   18.0692    2.4798 C.3    45  UNL45       0.0198
    355 C           5.6510   16.5562    2.4798 C.3    45  UNL45      -0.0517
    356 H           6.0806   18.4773    1.5912 H      45  UNL45       0.0427
    357 H           6.0806   18.4773    3.3683 H      45  UNL45       0.0427
    358 H           6.6929   16.2203    2.4798 H      45  UNL45       0.0241
    359 H           5.1630   16.1400    3.3672 H      45  UNL45       0.0241
    360 H           5.1630   16.1400    1.5924 H      45  UNL45       0.0241
    361 CL          3.7565   17.3995    7.6047 Cl     46  UNL46      -0.1257
    362 C           4.1562   17.6286    5.8887 C.3    46  UNL46       0.0198
    363 C           5.6300   17.3771    5.6489 C.3    46  UNL46      -0.0517
    364 H           3.5440   16.9360    5.3042 H      46  UNL46       0.0427
    365 H           3.8871   18.6521    5.6132 H      46  UNL46       0.0427
    366 H           5.8696   17.5198    4.5903 H      46  UNL46       0.0241
    367 H           6.2498   18.0674    6.2305 H      46  UNL46       0.0241
    368 H           5.9072   16.3536    5.9219 H      46  UNL46       0.0241
    369 CL          6.7263   16.8886    8.4055 Cl     47  UNL47      -0.1257
    370 C           6.3064   17.5350   10.0062 C.3    47  UNL47       0.0198
    371 C           4.8055   17.5229   10.2065 C.3    47  UNL47      -0.0517
    372 H           6.8037   16.9185   10.7603 H      47  UNL47       0.0427
    373 H           6.6987   18.5537   10.0724 H      47  UNL47       0.0427
    374 H           4.5536   17.9222   11.1941 H      47  UNL47       0.0241
    375 H           4.3003   18.1388    9.4553 H      47  UNL47       0.0241
    376 H           4.4052   16.5058   10.1423 H      47  UNL47       0.0241
    377 CL          7.7285   21.4470   -0.6632 Cl     48  UNL48      -0.1257
    378 C           6.1860   20.5653   -0.6632 C.3    48  UNL48       0.0198
    379 C           5.0215   21.5331   -0.6632 C.3    48  UNL48      -0.0517
    380 H           6.1614   19.9282   -1.5518 H      48  UNL48       0.0427
    381 H           6.1614   19.9282    0.2253 H      48  UNL48       0.0427
    382 H           4.0746   20.9838   -0.6632 H      48  UNL48       0.0241
    383 H           5.0388   22.1743    0.2242 H      48  UNL48       0.0241
    384 H           5.0388   22.1743   -1.5506 H      48  UNL48       0.0241
    385 CL          6.7874   22.3014    2.5338 Cl     49  UNL49      -0.1257
    386 C           5.2449   21.4197    2.5338 C.3    49  UNL49       0.0198
    387 C           4.0804   22.3875    2.5338 C.3    49  UNL49      -0.0517
    388 H           5.2203   20.7826    1.6452 H      49  UNL49       0.0427
    389 H           5.2203   20.7826    3.4223 H      49  UNL49       0.0427
    390 H           3.1335   21.8382    2.5338 H      49  UNL49       0.0241
    391 H           4.0977   23.0287    3.4212 H      49  UNL49       0.0241
    392 H           4.0977   23.0287    1.6464 H      49  UNL49       0.0241
    393 CL          7.2219   22.8597    6.4588 Cl     50  UNL50      -0.1257
    394 C           6.5145   21.2732    6.8320 C.3    50  UNL50       0.0198
    395 C           5.1561   21.1308    6.1783 C.3    50  UNL50      -0.0517
    396 H           7.2021   20.5035    6.4702 H      50  UNL50       0.0427
    397 H           6.4332   21.1872    7.9191 H      50  UNL50       0.0427
    398 H           4.7259   20.1516    6.4120 H      50  UNL50       0.0241
    399 H           4.4615   21.8978    6.5362 H      50  UNL50       0.0241
    400 H           5.2294   21.2150    5.0891 H      50  UNL50       0.0241
    401 CL          7.4328   21.6326   10.0682 Cl     51  UNL51      -0.1257
    402 C           5.8903   20.7509   10.0682 C.3    51  UNL51       0.0198
    403 C           4.7258   21.7187   10.0682 C.3    51  UNL51      -0.0517
    404 H           5.8657   20.1138    9.1796 H      51  UNL51       0.0427
    405 H           5.8657   20.1138   10.9567 H      51  UNL51       0.0427
    406 H           3.7789   21.1694   10.0682 H      51  UNL51       0.0241
    407 H           4.7431   22.3599   10.9556 H      51  UNL51       0.0241
    408 H           4.7431   22.3599    9.1808 H      51  UNL51       0.0241
    409 CL          7.5928   25.2518   -0.6632 Cl     52  UNL52      -0.1257
    410 C           6.0503   24.3701   -0.6632 C.3    52  UNL52       0.0198
    411 C           4.8858   25.3379   -0.6632 C.3    52  UNL52      -0.0517
    412 H           6.0257   23.7330   -1.5518 H      52  UNL52       0.0427
    413 H           6.0257   23.7330    0.2253 H      52  UNL52       0.0427
    414 H           3.9389   24.7886   -0.6632 H      52  UNL52       0.0241
    415 H           4.9031   25.9791    0.2242 H      52  UNL52       0.0241
    416 H           4.9031   25.9791   -1.5506 H      52  UNL52       0.0241
    417 CL          7.5969   25.6039    2.7173 Cl     53  UNL53      -0.1257
    418 C           6.0544   24.7222    2.7173 C.3    53  UNL53       0.0198
    419 C           4.8899   25.6900    2.7173 C.3    53  UNL53      -0.0517
    420 H           6.0298   24.0851    1.8287 H      53  UNL53       0.0427
    421 H           6.0298   24.0851    3.6058 H      53  UNL53       0.0427
    422 H           3.9430   25.1407    2.7173 H      53  UNL53       0.0241
    423 H           4.9072   26.3312    3.6047 H      53  UNL53       0.0241
    424 H           4.9072   26.3312    1.8299 H      53  UNL53       0.0241
    425 CL          7.0060   25.8342    6.0979 Cl     54  UNL54      -0.1257
    426 C           5.4635   24.9525    6.0979 C.3    54  UNL54       0.0198
    427 C           4.2990   25.9203    6.0979 C.3    54  UNL54      -0.0517
    428 H           5.4389   24.3154    5.2093 H      54  UNL54       0.0427
    429 H           5.4389   24.3154    6.9864 H      54  UNL54       0.0427
    430 H           3.3521   25.3710    6.0979 H      54  UNL54       0.0241
    431 H           4.3163   26.5615    6.9853 H      54  UNL54       0.0241
    432 H           4.3163   26.5615    5.2105 H      54  UNL54       0.0241
    433 CL          7.5928   25.2518    9.4784 Cl     55  UNL55      -0.1257
    434 C           6.0503   24.3701    9.4784 C.3    55  UNL55       0.0198
    435 C           4.8858   25.3379    9.4784 C.3    55  UNL55      -0.0517
    436 H           6.0257   23.7330    8.5898 H      55  UNL55       0.0427
    437 H           6.0257   23.7330   10.3669 H      55  UNL55       0.0427
    438 H           3.9389   24.7886    9.4784 H      55  UNL55       0.0241
    439 H           4.9031   25.9791   10.3658 H      55  UNL55       0.0241
    440 H           4.9031   25.9791    8.5910 H      55  UNL55       0.0241
    441 CL          7.5928   29.0310   -0.6632 Cl     56  UNL56      -0.1257
    442 C           6.0503   28.1493   -0.6632 C.3    56  UNL56       0.0198
    443 C           4.8858   29.1171   -0.6632 C.3    56  UNL56      -0.0517
    444 H           6.0257   27.5122   -1.5518 H      56  UNL56       0.0427
    445 H           6.0257   27.5122    0.2253 H      56  UNL56       0.0427
    446 H           3.9389   28.5678   -0.6632 H      56  UNL56       0.0241
    447 H           4.9031   29.7583    0.2242 H      56  UNL56       0.0241
    448 H           4.9031   29.7583   -1.5506 H      56  UNL56       0.0241
    449 CL          7.5928   29.0310    2.7173 Cl     57  UNL57      -0.1257
    450 C           6.0503   28.1493    2.7173 C.3    57  UNL57       0.0198
    451 C           4.8858   29.1171    2.7173 C.3    57  UNL57      -0.0517
    452 H           6.0257   27.5122    1.8287 H      57  UNL57       0.0427
    453 H           6.0257   27.5122    3.6058 H      57  UNL57       0.0427
    454 H           3.9389   28.5678    2.7173 H      57  UNL57       0.0241
    455 H           4.9031   29.7583    3.6047 H      57  UNL57       0.0241
    456 H           4.9031   29.7583    1.8299 H      57  UNL57       0.0241
    457 CL          7.0849   29.6043    6.0979 Cl     58  UNL58      -0.1257
    458 C           5.5424   28.7226    6.0979 C.3    58  UNL58       0.0198
    459 C           4.3779   29.6904    6.0979 C.3    58  UNL58      -0.0517
    460 H           5.5178   28.0855    5.2093 H      58  UNL58       0.0427
    461 H           5.5178   28.0855    6.9864 H      58  UNL58       0.0427
    462 H           3.4310   29.1411    6.0979 H      58  UNL58       0.0241
    463 H           4.3952   30.3316    6.9853 H      58  UNL58       0.0241
    464 H           4.3952   30.3316    5.2105 H      58  UNL58       0.0241
    465 CL          7.5928   29.0310    9.4784 Cl     59  UNL59      -0.1257
    466 C           6.0503   28.1493    9.4784 C.3    59  UNL59       0.0198
    467 C           4.8858   29.1171    9.4784 C.3    59  UNL59      -0.0517
    468 H           6.0257   27.5122    8.5898 H      59  UNL59       0.0427
    469 H           6.0257   27.5122   10.3669 H      59  UNL59       0.0427
    470 H           3.9389   28.5678    9.4784 H      59  UNL59       0.0241
    471 H           4.9031   29.7583   10.3658 H      59  UNL59       0.0241
    472 H           4.9031   29.7583    8.5910 H      59  UNL59       0.0241
    473 CL         13.1211    2.5767    1.4413 Cl     60  UNL60      -0.1257
    474 C          11.5786    1.6950    1.4413 C.3    60  UNL60       0.0198
    475 C          10.4141    2.6628    1.4413 C.3    60  UNL60      -0.0517
    476 H          11.5540    1.0579    0.5527 H      60  UNL60       0.0427
    477 H          11.5540    1.0579    2.3298 H      60  UNL60       0.0427
    478 H           9.4672    2.1135    1.4413 H      60  UNL60       0.0241
    479 H          10.4314    3.3040    2.3287 H      60  UNL60       0.0241
    480 H          10.4314    3.3040    0.5539 H      60  UNL60       0.0241
    481 CL         13.0924    2.5767    5.0200 Cl     61  UNL61      -0.1257
    482 C          11.5499    1.6950    5.0200 C.3    61  UNL61       0.0198
    483 C          10.3854    2.6628    5.0200 C.3    61  UNL61      -0.0517
    484 H          11.5253    1.0579    4.1314 H      61  UNL61       0.0427
    485 H          11.5253    1.0579    5.9085 H      61  UNL61       0.0427
    486 H           9.4385    2.1135    5.0200 H      61  UNL61       0.0241
    487 H          10.4027    3.3040    5.9074 H      61  UNL61       0.0241
    488 H          10.4027    3.3040    4.1326 H      61  UNL61       0.0241
    489 CL         13.1211    0.8675    9.4784 Cl     62  UNL62      -0.1257
    490 C          11.5786   -0.0142    9.4784 C.3    62  UNL62       0.0198
    491 C          10.4141    0.9536    9.4784 C.3    62  UNL62      -0.0517
    492 H          11.5540   -0.6513    8.5898 H      62  UNL62       0.0427
    493 H          11.5540   -0.6513   10.3669 H      62  UNL62       0.0427
    494 H           9.4672    0.4043    9.4784 H      62  UNL62       0.0241
    495 H          10.4314    1.5948   10.3658 H      62  UNL62       0.0241
    496 H          10.4314    1.5948    8.5910 H      62  UNL62       0.0241
    497 CL         13.1211    6.3558    1.3962 Cl     63  UNL63      -0.1257
    498 C          11.5786    5.4741    1.3962 C.3    63  UNL63       0.0198
    499 C          10.4141    6.4419    1.3962 C.3    63  UNL63      -0.0517
    500 H          11.5540    4.8370    0.5076 H      63  UNL63       0.0427
    501 H          11.5540    4.8370    2.2847 H      63  UNL63       0.0427
    502 H           9.4672    5.8926    1.3962 H      63  UNL63       0.0241
    503 H          10.4314    7.0831    2.2836 H      63  UNL63       0.0241
    504 H          10.4314    7.0831    0.5088 H      63  UNL63       0.0241
    505 CL         13.1211    6.3558    4.9596 Cl     64  UNL64      -0.1257
    506 C          11.5786    5.4741    4.9596 C.3    64  UNL64       0.0198
    507 C          10.4141    6.4419    4.9596 C.3    64  UNL64      -0.0517
    508 H          11.5540    4.8370    4.0710 H      64  UNL64       0.0427
    509 H          11.5540    4.8370    5.8481 H      64  UNL64       0.0427
    510 H           9.4672    5.8926    4.9596 H      64  UNL64       0.0241
    511 H          10.4314    7.0831    5.8470 H      64  UNL64       0.0241
    512 H          10.4314    7.0831    4.0722 H      64  UNL64       0.0241
    513 CL         13.1211    4.8310    8.3232 Cl     65  UNL65      -0.1257
    514 C          11.5786    3.9493    8.3232 C.3    65  UNL65       0.0198
    515 C          10.4141    4.9171    8.3232 C.3    65  UNL65      -0.0517
    516 H          11.5540    3.3122    7.4346 H      65  UNL65       0.0427
    517 H          11.5540    3.3122    9.2117 H      65  UNL65       0.0427
    518 H           9.4672    4.3678    8.3232 H      65  UNL65       0.0241
    519 H          10.4314    5.5583    9.2106 H      65  UNL65       0.0241
    520 H          10.4314    5.5583    7.4358 H      65  UNL65       0.0241
    521 CL         13.1211    6.3558   11.5880 Cl     66  UNL66      -0.1257
    522 C          11.5786    5.4741   11.5880 C.3    66  UNL66       0.0198
    523 C          10.4141    6.4419   11.5880 C.3    66  UNL66      -0.0517
    524 H          11.5540    4.8370   10.6994 H      66  UNL66       0.0427
    525 H          11.5540    4.8370   12.4765 H      66  UNL66       0.0427
    526 H           9.4672    5.8926   11.5880 H      66  UNL66       0.0241
    527 H          10.4314    7.0831   12.4754 H      66  UNL66       0.0241
    528 H          10.4314    7.0831   10.7006 H      66  UNL66       0.0241
    529 CL         13.1211   10.1350    1.0378 Cl     67  UNL67      -0.1257
    530 C          11.5786    9.2533    1.0378 C.3    67  UNL67       0.0198
    531 C          10.4141   10.2211    1.0378 C.3    67  UNL67      -0.0517
    532 H          11.5540    8.6162    0.1492 H      67  UNL67       0.0427
    533 H          11.5540    8.6162    1.9263 H      67  UNL67       0.0427
    534 H           9.4672    9.6718    1.0378 H      67  UNL67       0.0241
    535 H          10.4314   10.8623    1.9252 H      67  UNL67       0.0241
    536 H          10.4314   10.8623    0.1504 H      67  UNL67       0.0241
    537 CL         13.1211   10.1350    4.6600 Cl     68  UNL68      -0.1257
    538 C          11.5786    9.2533    4.6600 C.3    68  UNL68       0.0198
    539 C          10.4141   10.2211    4.6600 C.3    68  UNL68      -0.0517
    540 H          11.5540    8.6162    3.7714 H      68  UNL68       0.0427
    541 H          11.5540    8.6162    5.5485 H      68  UNL68       0.0427
    542 H           9.4672    9.6718    4.6600 H      68  UNL68       0.0241
    543 H          10.4314   10.8623    5.5474 H      68  UNL68       0.0241
    544 H          10.4314   10.8623    3.7726 H      68  UNL68       0.0241
    545 CL          9.9595    8.0173    8.0723 Cl     69  UNL69      -0.1257
    546 C          10.3367    9.7535    8.0723 C.3    69  UNL69       0.0198
    547 C          11.8352    9.9710    8.0723 C.3    69  UNL69      -0.0517
    548 H           9.8798   10.1981    7.1837 H      69  UNL69       0.0427
    549 H           9.8798   10.1981    8.9608 H      69  UNL69       0.0427
    550 H          12.0607   11.0422    8.0723 H      69  UNL69       0.0241
    551 H          12.3000    9.5291    8.9597 H      69  UNL69       0.0241
    552 H          12.3000    9.5291    7.1849 H      69  UNL69       0.0241
    553 CL         13.1211    9.8975   11.5276 Cl     70  UNL70      -0.1257
    554 C          11.5786    9.0158   11.5276 C.3    70  UNL70       0.0198
    555 C          10.4141    9.9836   11.5276 C.3    70  UNL70      -0.0517
    556 H          11.5540    8.3787   10.6390 H      70  UNL70       0.0427
    557 H          11.5540    8.3787   12.4161 H      70  UNL70       0.0427
    558 H           9.4672    9.4343   11.5276 H      70  UNL70       0.0241
    559 H          10.4314   10.6248   12.4150 H      70  UNL70       0.0241
    560 H          10.4314   10.6248   10.6402 H      70  UNL70       0.0241
    561 CL         13.1211   13.9142    1.1996 Cl     71  UNL71      -0.1257
    562 C          11.5786   13.0325    1.1996 C.3    71  UNL71       0.0198
    563 C          10.4141   14.0003    1.1996 C.3    71  UNL71      -0.0517
    564 H          11.5540   12.3954    0.3110 H      71  UNL71       0.0427
    565 H          11.5540   12.3954    2.0881 H      71  UNL71       0.0427
    566 H           9.4672   13.4510    1.1996 H      71  UNL71       0.0241
    567 H          10.4314   14.6415    2.0870 H      71  UNL71       0.0241
    568 H          10.4314   14.6415    0.3122 H      71  UNL71       0.0241
    569 CL         13.1211   13.9142    4.9171 Cl     72  UNL72      -0.1257
    570 C          11.5786   13.0325    4.9171 C.3    72  UNL72       0.0198
    571 C          10.4141   14.0003    4.9171 C.3    72  UNL72      -0.0517
    572 H          11.5540   12.3954    4.0285 H      72  UNL72       0.0427
    573 H          11.5540   12.3954    5.8056 H      72  UNL72       0.0427
    574 H           9.4672   13.4510    4.9171 H      72  UNL72       0.0241
    575 H          10.4314   14.6415    5.8045 H      72  UNL72       0.0241
    576 H          10.4314   14.6415    4.0297 H      72  UNL72       0.0241
    577 CL         14.3023   14.0781    8.0887 Cl     73  UNL73      -0.1257
    578 C          12.7598   13.1964    8.0887 C.3    73  UNL73       0.0198
    579 C          11.5953   14.1642    8.0887 C.3    73  UNL73      -0.0517
    580 H          12.7352   12.5593    7.2001 H      73  UNL73       0.0427
    581 H          12.7352   12.5593    8.9772 H      73  UNL73       0.0427
    582 H          10.6484   13.6149    8.0887 H      73  UNL73       0.0241
    583 H          11.6126   14.8054    8.9761 H      73  UNL73       0.0241
    584 H          11.6126   14.8054    7.2013 H      73  UNL73       0.0241
    585 CL         10.7849   15.2367   11.0197 Cl     74  UNL74      -0.1257
    586 C          10.9645   13.6876   11.8711 C.3    74  UNL74       0.0198
    587 C          11.5098   12.6285   10.9366 C.3    74  UNL74      -0.0517
    588 H          11.6396   13.8438   12.7172 H      74  UNL74       0.0427
    589 H           9.9825   13.3979   12.2555 H      74  UNL74       0.0427
    590 H          11.6180   11.6770   11.4670 H      74  UNL74       0.0241
    591 H          10.8387   12.4658   10.0868 H      74  UNL74       0.0241
    592 H          12.4937   12.9111   10.5479 H      74  UNL74       0.0241
    593 CL         13.1211   17.6934    1.0890 Cl     75  UNL75      -0.1257
    594 C          11.5786   16.8117    1.0890 C.3    75  UNL75       0.0198
    595 C          10.4141   17.7795    1.0890 C.3    75  UNL75      -0.0517
    596 H          11.5540   16.1746    0.2004 H      75  UNL75       0.0427
    597 H          11.5540   16.1746    1.9775 H      75  UNL75       0.0427
    598 H           9.4672   17.2302    1.0890 H      75  UNL75       0.0241
    599 H          10.4314   18.4207    1.9764 H      75  UNL75       0.0241
    600 H          10.4314   18.4207    0.2016 H      75  UNL75       0.0241
    601 CL         13.1211   17.6893    4.5861 Cl     76  UNL76      -0.1257
    602 C          11.5786   16.8076    4.5861 C.3    76  UNL76       0.0198
    603 C          10.4141   17.7754    4.5861 C.3    76  UNL76      -0.0517
    604 H          11.5540   16.1705    3.6975 H      76  UNL76       0.0427
    605 H          11.5540   16.1705    5.4746 H      76  UNL76       0.0427
    606 H           9.4672   17.2261    4.5861 H      76  UNL76       0.0241
    607 H          10.4314   18.4166    5.4735 H      76  UNL76       0.0241
    608 H          10.4314   18.4166    3.6987 H      76  UNL76       0.0241
    609 CL         12.2596   17.1256    8.9713 Cl     77  UNL77      -0.1257
    610 C          10.7171   17.6533    9.6777 C.3    77  UNL77       0.0198
    611 C           9.5526   17.0741    8.9023 C.3    77  UNL77      -0.0517
    612 H          10.6925   17.3226   10.7199 H      77  UNL77       0.0427
    613 H          10.6925   18.7464    9.6564 H      77  UNL77       0.0427
    614 H           8.6057   17.4028    9.3424 H      77  UNL77       0.0241
    615 H           9.5699   17.4013    7.8576 H      77  UNL77       0.0241
    616 H           9.5699   15.9794    8.9197 H      77  UNL77       0.0241
    617 CL         13.1170   21.4685    2.3102 Cl     78  UNL78      -0.1257
    618 C          11.5745   20.5868    2.3102 C.3    78  UNL78       0.0198
    619 C          10.4100   21.5546    2.3102 C.3    78  UNL78      -0.0517
    620 H          11.5499   19.9497    1.4216 H      78  UNL78       0.0427
    621 H          11.5499   19.9497    3.1987 H      78  UNL78       0.0427
    622 H           9.4631   21.0053    2.3102 H      78  UNL78       0.0241
    623 H          10.4273   22.1958    3.1976 H      78  UNL78       0.0241
    624 H          10.4273   22.1958    1.4228 H      78  UNL78       0.0241
    625 CL         12.5717   21.4726    5.9379 Cl     79  UNL79      -0.1257
    626 C          11.0292   20.5909    5.9379 C.3    79  UNL79       0.0198
    627 C           9.8647   21.5587    5.9379 C.3    79  UNL79      -0.0517
    628 H          11.0046   19.9538    5.0493 H      79  UNL79       0.0427
    629 H          11.0046   19.9538    6.8264 H      79  UNL79       0.0427
    630 H           8.9178   21.0094    5.9379 H      79  UNL79       0.0241
    631 H           9.8820   22.1999    6.8253 H      79  UNL79       0.0241
    632 H           9.8820   22.1999    5.0505 H      79  UNL79       0.0241
    633 CL         13.1211   21.4726    9.4694 Cl     80  UNL80      -0.1257
    634 C          11.5786   20.5909    9.4694 C.3    80  UNL80       0.0198
    635 C          10.4141   21.5587    9.4694 C.3    80  UNL80      -0.0517
    636 H          11.5540   19.9538    8.5808 H      80  UNL80       0.0427
    637 H          11.5540   19.9538   10.3579 H      80  UNL80       0.0427
    638 H           9.4672   21.0094    9.4694 H      80  UNL80       0.0241
    639 H          10.4314   22.1999   10.3568 H      80  UNL80       0.0241
    640 H          10.4314   22.1999    8.5820 H      80  UNL80       0.0241
    641 CL         10.1157   25.8806    1.2864 Cl     81  UNL81      -0.1257
    642 C          11.8031   25.3245    1.2864 C.3    81  UNL81       0.0198
    643 C          11.8634   23.8116    1.2864 C.3    81  UNL81      -0.0517
    644 H          12.2930   25.7326    0.3978 H      81  UNL81       0.0427
    645 H          12.2930   25.7326    2.1749 H      81  UNL81       0.0427
    646 H          12.9052   23.4756    1.2864 H      81  UNL81       0.0241
    647 H          11.3753   23.3953    2.1738 H      81  UNL81       0.0241
    648 H          11.3753   23.3953    0.3990 H      81  UNL81       0.0241
    649 CL         13.1784   25.2518    4.6222 Cl     82  UNL82      -0.1257
    650 C          11.6359   24.3701    4.6222 C.3    82  UNL82       0.0198
    651 C          10.4714   25.3379    4.6222 C.3    82  UNL82      -0.0517
    652 H          11.6113   23.7330    3.7336 H      82  UNL82       0.0427
    653 H          11.6113   23.7330    5.5107 H      82  UNL82       0.0427
    654 H           9.5245   24.7886    4.6222 H      82  UNL82       0.0241
    655 H          10.4887   25.9791    5.5096 H      82  UNL82       0.0241
    656 H          10.4887   25.9791    3.7348 H      82  UNL82       0.0241
    657 CL         13.1170   25.2518    8.0856 Cl     83  UNL83      -0.1257
    658 C          11.5745   24.3701    8.0856 C.3    83  UNL83       0.0198
    659 C          10.4100   25.3379    8.0856 C.3    83  UNL83      -0.0517
    660 H          11.5499   23.7330    7.1970 H      83  UNL83       0.0427
    661 H          11.5499   23.7330    8.9741 H      83  UNL83       0.0427
    662 H           9.4631   24.7886    8.0856 H      83  UNL83       0.0241
    663 H          10.4273   25.9791    8.9730 H      83  UNL83       0.0241
    664 H          10.4273   25.9791    7.1982 H      83  UNL83       0.0241
    665 CL         13.1211   25.2518   11.5857 Cl     84  UNL84      -0.1257
    666 C          11.5786   24.3701   11.5857 C.3    84  UNL84       0.0198
    667 C          10.4141   25.3379   11.5857 C.3    84  UNL84      -0.0517
    668 H          11.5540   23.7330   10.6971 H      84  UNL84       0.0427
    669 H          11.5540   23.7330   12.4742 H      84  UNL84       0.0427
    670 H           9.4672   24.7886   11.5857 H      84  UNL84       0.0241
    671 H          10.4314   25.9791   12.4731 H      84  UNL84       0.0241
    672 H          10.4314   25.9791   10.6983 H      84  UNL84       0.0241
    673 CL         13.1211   29.0228    1.0686 Cl     85  UNL85      -0.1257
    674 C          11.5786   28.1411    1.0686 C.3    85  UNL85       0.0198
    675 C          10.4141   29.1089    1.0686 C.3    85  UNL85      -0.0517
    676 H          11.5540   27.5040    0.1800 H      85  UNL85       0.0427
    677 H          11.5540   27.5040    1.9571 H      85  UNL85       0.0427
    678 H           9.4672   28.5596    1.0686 H      85  UNL85       0.0241
    679 H          10.4314   29.7501    1.9560 H      85  UNL85       0.0241
    680 H          10.4314   29.7501    0.1812 H      85  UNL85       0.0241
    681 CL         13.1211   29.0310    4.5843 Cl     86  UNL86      -0.1257
    682 C          11.5786   28.1493    4.5843 C.3    86  UNL86       0.0198
    683 C          10.4141   29.1171    4.5843 C.3    86  UNL86      -0.0517
    684 H          11.5540   27.5122    3.6957 H      86  UNL86       0.0427
    685 H          11.5540   27.5122    5.4728 H      86  UNL86       0.0427
    686 H           9.4672   28.5678    4.5843 H      86  UNL86       0.0241
    687 H          10.4314   29.7583    5.4717 H      86  UNL86       0.0241
    688 H          10.4314   29.7583    3.6969 H      86  UNL86       0.0241
    689 CL         13.1211   28.8549    8.1563 Cl     87  UNL87      -0.1257
    690 C          11.5786   27.9732    8.1563 C.3    87  UNL87       0.0198
    691 C          10.4141   28.9410    8.1563 C.3    87  UNL87      -0.0517
    692 H          11.5540   27.3361    7.2677 H      87  UNL87       0.0427
    693 H          11.5540   27.3361    9.0448 H      87  UNL87       0.0427
    694 H           9.4672   28.3917    8.1563 H      87  UNL87       0.0241
    695 H          10.4314   29.5822    9.0437 H      87  UNL87       0.0241
    696 H          10.4314   29.5822    7.2689 H      87  UNL87       0.0241
    697 CL         13.1211   29.0391   11.7997 Cl     88  UNL88      -0.1257
    698 C          11.5786   28.1574   11.7997 C.3    88  UNL88       0.0198
    699 C          10.4141   29.1252   11.7997 C.3    88  UNL88      -0.0517
    700 H          11.5540   27.5203   10.9111 H      88  UNL88       0.0427
    701 H          11.5540   27.5203   12.6882 H      88  UNL88       0.0427
    702 H           9.4672   28.5759   11.7997 H      88  UNL88       0.0241
    703 H          10.4314   29.7664   12.6871 H      88  UNL88       0.0241
    704 H          10.4314   29.7664   10.9123 H      88  UNL88       0.0241
    705 CL         18.6494    2.5767   -0.6632 Cl     89  UNL89      -0.1257
    706 C          17.1069    1.6950   -0.6632 C.3    89  UNL89       0.0198
    707 C          15.9424    2.6628   -0.6632 C.3    89  UNL89      -0.0517
    708 H          17.0823    1.0579   -1.5518 H      89  UNL89       0.0427
    709 H          17.0823    1.0579    0.2253 H      89  UNL89       0.0427
    710 H          14.9955    2.1135   -0.6632 H      89  UNL89       0.0241
    711 H          15.9597    3.3040    0.2242 H      89  UNL89       0.0241
    712 H          15.9597    3.3040   -1.5506 H      89  UNL89       0.0241
    713 CL         18.6494    2.5767    2.7173 Cl     90  UNL90      -0.1257
    714 C          17.1069    1.6950    2.7173 C.3    90  UNL90       0.0198
    715 C          15.9424    2.6628    2.7173 C.3    90  UNL90      -0.0517
    716 H          17.0823    1.0579    1.8287 H      90  UNL90       0.0427
    717 H          17.0823    1.0579    3.6058 H      90  UNL90       0.0427
    718 H          14.9955    2.1135    2.7173 H      90  UNL90       0.0241
    719 H          15.9597    3.3040    3.6047 H      90  UNL90       0.0241
    720 H          15.9597    3.3040    1.8299 H      90  UNL90       0.0241
    721 CL         18.6494    2.5767    6.0979 Cl     91  UNL91      -0.1257
    722 C          17.1069    1.6950    6.0979 C.3    91  UNL91       0.0198
    723 C          15.9424    2.6628    6.0979 C.3    91  UNL91      -0.0517
    724 H          17.0823    1.0579    5.2093 H      91  UNL91       0.0427
    725 H          17.0823    1.0579    6.9864 H      91  UNL91       0.0427
    726 H          14.9955    2.1135    6.0979 H      91  UNL91       0.0241
    727 H          15.9597    3.3040    6.9853 H      91  UNL91       0.0241
    728 H          15.9597    3.3040    5.2105 H      91  UNL91       0.0241
    729 CL         18.6494    2.5767    9.4784 Cl     92  UNL92      -0.1257
    730 C          17.1069    1.6950    9.4784 C.3    92  UNL92       0.0198
    731 C          15.9424    2.6628    9.4784 C.3    92  UNL92      -0.0517
    732 H          17.0823    1.0579    8.5898 H      92  UNL92       0.0427
    733 H          17.0823    1.0579   10.3669 H      92  UNL92       0.0427
    734 H          14.9955    2.1135    9.4784 H      92  UNL92       0.0241
    735 H          15.9597    3.3040   10.3658 H      92  UNL92       0.0241
    736 H          15.9597    3.3040    8.5910 H      92  UNL92       0.0241
    737 CL         18.6453    6.3302   -0.6632 Cl     93  UNL93      -0.1257
    738 C          17.1028    5.4485   -0.6632 C.3    93  UNL93       0.0198
    739 C          15.9383    6.4163   -0.6632 C.3    93  UNL93      -0.0517
    740 H          17.0782    4.8114   -1.5518 H      93  UNL93       0.0427
    741 H          17.0782    4.8114    0.2253 H      93  UNL93       0.0427
    742 H          14.9914    5.8670   -0.6632 H      93  UNL93       0.0241
    743 H          15.9556    7.0575    0.2242 H      93  UNL93       0.0241
    744 H          15.9556    7.0575   -1.5506 H      93  UNL93       0.0241
    745 CL         18.6494    6.3558    2.7173 Cl     94  UNL94      -0.1257
    746 C          17.1069    5.4741    2.7173 C.3    94  UNL94       0.0198
    747 C          15.9424    6.4419    2.7173 C.3    94  UNL94      -0.0517
    748 H          17.0823    4.8370    1.8287 H      94  UNL94       0.0427
    749 H          17.0823    4.8370    3.6058 H      94  UNL94       0.0427
    750 H          14.9955    5.8926    2.7173 H      94  UNL94       0.0241
    751 H          15.9597    7.0831    3.6047 H      94  UNL94       0.0241
    752 H          15.9597    7.0831    1.8299 H      94  UNL94       0.0241
    753 CL         18.6494    6.3558    6.0979 Cl     95  UNL95      -0.1257
    754 C          17.1069    5.4741    6.0979 C.3    95  UNL95       0.0198
    755 C          15.9424    6.4419    6.0979 C.3    95  UNL95      -0.0517
    756 H          17.0823    4.8370    5.2093 H      95  UNL95       0.0427
    757 H          17.0823    4.8370    6.9864 H      95  UNL95       0.0427
    758 H          14.9955    5.8926    6.0979 H      95  UNL95       0.0241
    759 H          15.9597    7.0831    6.9853 H      95  UNL95       0.0241
    760 H          15.9597    7.0831    5.2105 H      95  UNL95       0.0241
    761 CL         18.6494    6.3558    9.9412 Cl     96  UNL96      -0.1257
    762 C          17.1069    5.4741    9.9412 C.3    96  UNL96       0.0198
    763 C          15.9424    6.4419    9.9412 C.3    96  UNL96      -0.0517
    764 H          17.0823    4.8370    9.0526 H      96  UNL96       0.0427
    765 H          17.0823    4.8370   10.8297 H      96  UNL96       0.0427
    766 H          14.9955    5.8926    9.9412 H      96  UNL96       0.0241
    767 H          15.9597    7.0831   10.8286 H      96  UNL96       0.0241
    768 H          15.9597    7.0831    9.0538 H      96  UNL96       0.0241
    769 CL         18.7641   10.0168   -0.6673 Cl     97  UNL97      -0.1257
    770 C          17.2216    9.1351   -0.6673 C.3    97  UNL97       0.0198
    771 C          16.0571   10.1029   -0.6673 C.3    97  UNL97      -0.0517
    772 H          17.1970    8.4980   -1.5559 H      97  UNL97       0.0427
    773 H          17.1970    8.4980    0.2212 H      97  UNL97       0.0427
    774 H          15.1102    9.5536   -0.6673 H      97  UNL97       0.0241
    775 H          16.0744   10.7441    0.2201 H      97  UNL97       0.0241
    776 H          16.0744   10.7441   -1.5547 H      97  UNL97       0.0241
    777 CL         18.0032   10.3030    2.7173 Cl     98  UNL98      -0.1257
    778 C          16.4607    9.4213    2.7173 C.3    98  UNL98       0.0198
    779 C          15.2962   10.3891    2.7173 C.3    98  UNL98      -0.0517
    780 H          16.4361    8.7842    1.8287 H      98  UNL98       0.0427
    781 H          16.4361    8.7842    3.6058 H      98  UNL98       0.0427
    782 H          14.3493    9.8398    2.7173 H      98  UNL98       0.0241
    783 H          15.3135   11.0303    3.6047 H      98  UNL98       0.0241
    784 H          15.3135   11.0303    1.8299 H      98  UNL98       0.0241
    785 CL         18.6494   10.1350    6.0979 Cl     99  UNL99      -0.1257
    786 C          17.1069    9.2533    6.0979 C.3    99  UNL99       0.0198
    787 C          15.9424   10.2211    6.0979 C.3    99  UNL99      -0.0517
    788 H          17.0823    8.6162    5.2093 H      99  UNL99       0.0427
    789 H          17.0823    8.6162    6.9864 H      99  UNL99       0.0427
    790 H          14.9955    9.6718    6.0979 H      99  UNL99       0.0241
    791 H          15.9597   10.8623    6.9853 H      99  UNL99       0.0241
    792 H          15.9597   10.8623    5.2105 H      99  UNL99       0.0241
    793 CL         18.6494   10.1350    9.4784 Cl    100  UNL100     -0.1257
    794 C          17.1069    9.2533    9.4784 C.3   100  UNL100      0.0198
    795 C          15.9424   10.2211    9.4784 C.3   100  UNL100     -0.0517
    796 H          17.0823    8.6162    8.5898 H     100  UNL100      0.0427
    797 H          17.0823    8.6162   10.3669 H     100  UNL100      0.0427
    798 H          14.9955    9.6718    9.4784 H     100  UNL100      0.0241
    799 H          15.9597   10.8623   10.3658 H     100  UNL100      0.0241
    800 H          15.9597   10.8623    8.5910 H     100  UNL100      0.0241
    801 CL         17.8440   14.0038    3.0204 Cl    101  UNL101     -0.1257
    802 C          16.3015   13.1221    3.0204 C.3   101  UNL101      0.0198
    803 C          15.1370   14.0899    3.0204 C.3   101  UNL101     -0.0517
    804 H          16.2769   12.4850    2.1318 H     101  UNL101      0.0427
    805 H          16.2769   12.4850    3.9089 H     101  UNL101      0.0427
    806 H          14.1901   13.5406    3.0204 H     101  UNL101      0.0241
    807 H          15.1543   14.7311    3.9078 H     101  UNL101      0.0241
    808 H          15.1543   14.7311    2.1330 H     101  UNL101      0.0241
    809 CL         18.8094   13.7542    6.0979 Cl    102  UNL102     -0.1257
    810 C          17.2669   12.8725    6.0979 C.3   102  UNL102      0.0198
    811 C          16.1024   13.8403    6.0979 C.3   102  UNL102     -0.0517
    812 H          17.2423   12.2354    5.2093 H     102  UNL102      0.0427
    813 H          17.2423   12.2354    6.9864 H     102  UNL102      0.0427
    814 H          15.1555   13.2910    6.0979 H     102  UNL102      0.0241
    815 H          16.1197   14.4815    6.9853 H     102  UNL102      0.0241
    816 H          16.1197   14.4815    5.2105 H     102  UNL102      0.0241
    817 CL         19.6798   13.9142    9.4784 Cl    103  UNL103     -0.1257
    818 C          18.1373   13.0325    9.4784 C.3   103  UNL103      0.0198
    819 C          16.9728   14.0003    9.4784 C.3   103  UNL103     -0.0517
    820 H          18.1127   12.3954    8.5898 H     103  UNL103      0.0427
    821 H          18.1127   12.3954   10.3669 H     103  UNL103      0.0427
    822 H          16.0259   13.4510    9.4784 H     103  UNL103      0.0241
    823 H          16.9901   14.6415   10.3658 H     103  UNL103      0.0241
    824 H          16.9901   14.6415    8.5910 H     103  UNL103      0.0241
    825 CL         19.1468   16.8509    3.2436 Cl    104  UNL104     -0.1257
    826 C          17.6043   17.0799    2.3922 C.3   104  UNL104      0.0198
    827 C          16.4398   16.8285    3.3268 C.3   104  UNL104     -0.0517
    828 H          17.5797   18.1036    2.0079 H     104  UNL104      0.0427
    829 H          17.5797   16.3875    1.5461 H     104  UNL104      0.0427
    830 H          15.4929   16.9712    2.7963 H     104  UNL104      0.0241
    831 H          16.4571   15.8050    3.7154 H     104  UNL104      0.0241
    832 H          16.4571   17.5188    4.1765 H     104  UNL104      0.0241
    833 CL         13.6027   19.1992    7.0061 Cl    105  UNL105     -0.1257
    834 C          15.0821   18.2153    7.0061 C.3   105  UNL105      0.0198
    835 C          14.7387   16.7406    7.0061 C.3   105  UNL105     -0.0517
    836 H          15.6627   18.4788    6.1175 H     105  UNL105      0.0427
    837 H          15.6627   18.4788    7.8946 H     105  UNL105      0.0427
    838 H          15.6541   16.1402    7.0061 H     105  UNL105      0.0241
    839 H          14.1577   16.4687    7.8935 H     105  UNL105      0.0241
    840 H          14.1577   16.4687    6.1187 H     105  UNL105      0.0241
    841 CL         18.5613   21.8886   -0.6632 Cl    106  UNL106     -0.1257
    842 C          17.0188   21.0069   -0.6632 C.3   106  UNL106      0.0198
    843 C          15.8543   21.9747   -0.6632 C.3   106  UNL106     -0.0517
    844 H          16.9942   20.3698   -1.5518 H     106  UNL106      0.0427
    845 H          16.9942   20.3698    0.2253 H     106  UNL106      0.0427
    846 H          14.9074   21.4254   -0.6632 H     106  UNL106      0.0241
    847 H          15.8716   22.6159    0.2242 H     106  UNL106      0.0241
    848 H          15.8716   22.6159   -1.5506 H     106  UNL106      0.0241
    849 CL         15.6538   19.4207    2.7173 Cl    107  UNL107     -0.1257
    850 C          15.8705   21.1841    2.7173 C.3   107  UNL107      0.0198
    851 C          17.3428   21.5379    2.7173 C.3   107  UNL107     -0.0517
    852 H          15.3748   21.5851    1.8287 H     107  UNL107      0.0427
    853 H          15.3748   21.5851    3.6058 H     107  UNL107      0.0427
    854 H          17.4694   22.6252    2.7173 H     107  UNL107      0.0241
    855 H          17.8461   21.1403    3.6047 H     107  UNL107      0.0241
    856 H          17.8461   21.1403    1.8299 H     107  UNL107      0.0241
    857 CL         18.4774   21.5921    6.0979 Cl    108  UNL108     -0.1257
    858 C          16.9349   20.7104    6.0979 C.3   108  UNL108      0.0198
    859 C          15.7704   21.6782    6.0979 C.3   108  UNL108     -0.0517
    860 H          16.9103   20.0733    5.2093 H     108  UNL108      0.0427
    861 H          16.9103   20.0733    6.9864 H     108  UNL108      0.0427
    862 H          14.8235   21.1289    6.0979 H     108  UNL108      0.0241
    863 H          15.7877   22.3194    6.9853 H     108  UNL108      0.0241
    864 H          15.7877   22.3194    5.2105 H     108  UNL108      0.0241
    865 CL         15.3721   22.4235    9.7454 Cl    109  UNL109     -0.1257
    866 C          16.9353   21.5790    9.7454 C.3   109  UNL109      0.0198
    867 C          16.7283   20.0791    9.7454 C.3   109  UNL109     -0.0517
    868 H          17.4894   21.8945    8.8568 H     109  UNL109      0.0427
    869 H          17.4894   21.8945   10.6339 H     109  UNL109      0.0427
    870 H          17.6947   19.5650    9.7454 H     109  UNL109      0.0241
    871 H          16.1746   19.7552   10.6328 H     109  UNL109      0.0241
    872 H          16.1746   19.7552    8.8580 H     109  UNL109      0.0241
    873 CL         19.1859   25.1740   -0.6632 Cl    110  UNL110     -0.1257
    874 C          17.6434   24.2923   -0.6632 C.3   110  UNL110      0.0198
    875 C          16.4789   25.2601   -0.6632 C.3   110  UNL110     -0.0517
    876 H          17.6188   23.6552   -1.5518 H     110  UNL110      0.0427
    877 H          17.6188   23.6552    0.2253 H     110  UNL110      0.0427
    878 H          15.5320   24.7108   -0.6632 H     110  UNL110      0.0241
    879 H          16.4962   25.9013    0.2242 H     110  UNL110      0.0241
    880 H          16.4962   25.9013   -1.5506 H     110  UNL110      0.0241
    881 CL         17.8632   25.4118    2.7173 Cl    111  UNL111     -0.1257
    882 C          16.3207   24.5301    2.7173 C.3   111  UNL111      0.0198
    883 C          15.1561   25.4979    2.7173 C.3   111  UNL111     -0.0517
    884 H          16.2961   23.8930    1.8287 H     111  UNL111      0.0427
    885 H          16.2961   23.8930    3.6058 H     111  UNL111      0.0427
    886 H          14.2092   24.9486    2.7173 H     111  UNL111      0.0241
    887 H          15.1734   26.1391    3.6047 H     111  UNL111      0.0241
    888 H          15.1734   26.1391    1.8299 H     111  UNL111      0.0241
    889 CL         18.7395   25.2518    6.0979 Cl    112  UNL112     -0.1257
    890 C          17.1970   24.3701    6.0979 C.3   112  UNL112      0.0198
    891 C          16.0325   25.3379    6.0979 C.3   112  UNL112     -0.0517
    892 H          17.1724   23.7330    5.2093 H     112  UNL112      0.0427
    893 H          17.1724   23.7330    6.9864 H     112  UNL112      0.0427
    894 H          15.0856   24.7886    6.0979 H     112  UNL112      0.0241
    895 H          16.0498   25.9791    6.9853 H     112  UNL112      0.0241
    896 H          16.0498   25.9791    5.2105 H     112  UNL112      0.0241
    897 CL         18.6494   25.2518    9.4784 Cl    113  UNL113     -0.1257
    898 C          17.1069   24.3701    9.4784 C.3   113  UNL113      0.0198
    899 C          15.9424   25.3379    9.4784 C.3   113  UNL113     -0.0517
    900 H          17.0823   23.7330    8.5898 H     113  UNL113      0.0427
    901 H          17.0823   23.7330   10.3669 H     113  UNL113      0.0427
    902 H          14.9955   24.7886    9.4784 H     113  UNL113      0.0241
    903 H          15.9597   25.9791   10.3658 H     113  UNL113      0.0241
    904 H          15.9597   25.9791    8.5910 H     113  UNL113      0.0241
    905 CL         18.6494   29.0310   -0.6632 Cl    114  UNL114     -0.1257
    906 C          17.1069   28.1493   -0.6632 C.3   114  UNL114      0.0198
    907 C          15.9424   29.1171   -0.6632 C.3   114  UNL114     -0.0517
    908 H          17.0823   27.5122   -1.5518 H     114  UNL114      0.0427
    909 H          17.0823   27.5122    0.2253 H     114  UNL114      0.0427
    910 H          14.9955   28.5678   -0.6632 H     114  UNL114      0.0241
    911 H          15.9597   29.7583    0.2242 H     114  UNL114      0.0241
    912 H          15.9597   29.7583   -1.5506 H     114  UNL114      0.0241
    913 CL         18.6494   29.1047    2.7173 Cl    115  UNL115     -0.1257
    914 C          17.1069   28.2230    2.7173 C.3   115  UNL115      0.0198
    915 C          15.9424   29.1908    2.7173 C.3   115  UNL115     -0.0517
    916 H          17.0823   27.5859    1.8287 H     115  UNL115      0.0427
    917 H          17.0823   27.5859    3.6058 H     115  UNL115      0.0427
    918 H          14.9955   28.6415    2.7173 H     115  UNL115      0.0241
    919 H          15.9597   29.8320    3.6047 H     115  UNL115      0.0241
    920 H          15.9597   29.8320    1.8299 H     115  UNL115      0.0241
    921 CL         18.7886   29.0310    6.0979 Cl    116  UNL116     -0.1257
    922 C          17.2461   28.1493    6.0979 C.3   116  UNL116      0.0198
    923 C          16.0816   29.1171    6.0979 C.3   116  UNL116     -0.0517
    924 H          17.2215   27.5122    5.2093 H     116  UNL116      0.0427
    925 H          17.2215   27.5122    6.9864 H     116  UNL116      0.0427
    926 H          15.1347   28.5678    6.0979 H     116  UNL116      0.0241
    927 H          16.0989   29.7583    6.9853 H     116  UNL116      0.0241
    928 H          16.0989   29.7583    5.2105 H     116  UNL116      0.0241
    929 CL         18.6494   29.0310    9.4784 Cl    117  UNL117     -0.1257
    930 C          17.1069   28.1493    9.4784 C.3   117  UNL117      0.0198
    931 C          15.9424   29.1171    9.4784 C.3   117  UNL117     -0.0517
    932 H          17.0823   27.5122    8.5898 H     117  UNL117      0.0427
    933 H          17.0823   27.5122   10.3669 H     117  UNL117      0.0427
    934 H          14.9955   28.5678    9.4784 H     117  UNL117      0.0241
    935 H          15.9597   29.7583   10.3658 H     117  UNL117      0.0241
    936 H          15.9597   29.7583    8.5910 H     117  UNL117      0.0241
    937 CL         24.1777    2.5767    1.3635 Cl    118  UNL118     -0.1257
    938 C          22.6352    1.6950    1.3635 C.3   118  UNL118      0.0198
    939 C          21.4707    2.6628    1.3635 C.3   118  UNL118     -0.0517
    940 H          22.6106    1.0579    0.4749 H     118  UNL118      0.0427
    941 H          22.6106    1.0579    2.2520 H     118  UNL118      0.0427
    942 H          20.5238    2.1135    1.3635 H     118  UNL118      0.0241
    943 H          21.4880    3.3040    2.2509 H     118  UNL118      0.0241
    944 H          21.4880    3.3040    0.4761 H     118  UNL118      0.0241
    945 CL         24.1777    2.5767    4.8321 Cl    119  UNL119     -0.1257
    946 C          22.6352    1.6950    4.8321 C.3   119  UNL119      0.0198
    947 C          21.4707    2.6628    4.8321 C.3   119  UNL119     -0.0517
    948 H          22.6106    1.0579    3.9435 H     119  UNL119      0.0427
    949 H          22.6106    1.0579    5.7206 H     119  UNL119      0.0427
    950 H          20.5238    2.1135    4.8321 H     119  UNL119      0.0241
    951 H          21.4880    3.3040    5.7195 H     119  UNL119      0.0241
    952 H          21.4880    3.3040    3.9447 H     119  UNL119      0.0241
    953 CL         24.1777    2.5767    8.3240 Cl    120  UNL120     -0.1257
    954 C          22.6352    1.6950    8.3240 C.3   120  UNL120      0.0198
    955 C          21.4707    2.6628    8.3240 C.3   120  UNL120     -0.0517
    956 H          22.6106    1.0579    7.4354 H     120  UNL120      0.0427
    957 H          22.6106    1.0579    9.2125 H     120  UNL120      0.0427
    958 H          20.5238    2.1135    8.3240 H     120  UNL120      0.0241
    959 H          21.4880    3.3040    9.2114 H     120  UNL120      0.0241
    960 H          21.4880    3.3040    7.4366 H     120  UNL120      0.0241
    961 CL         24.1941    2.5767   11.8948 Cl    121  UNL121     -0.1257
    962 C          22.6516    1.6950   11.8948 C.3   121  UNL121      0.0198
    963 C          21.4871    2.6628   11.8948 C.3   121  UNL121     -0.0517
    964 H          22.6270    1.0579   11.0062 H     121  UNL121      0.0427
    965 H          22.6270    1.0579   12.7833 H     121  UNL121      0.0427
    966 H          20.5402    2.1135   11.8948 H     121  UNL121      0.0241
    967 H          21.5044    3.3040   12.7822 H     121  UNL121      0.0241
    968 H          21.5044    3.3040   11.0074 H     121  UNL121      0.0241
    969 CL         24.1777    6.3558    1.2375 Cl    122  UNL122     -0.1257
    970 C          22.6352    5.4741    1.2375 C.3   122  UNL122      0.0198
    971 C          21.4707    6.4419    1.2375 C.3   122  UNL122     -0.0517
    972 H          22.6106    4.8370    0.3489 H     122  UNL122      0.0427
    973 H          22.6106    4.8370    2.1260 H     122  UNL122      0.0427
    974 H          20.5238    5.8926    1.2375 H     122  UNL122      0.0241
    975 H          21.4880    7.0831    2.1249 H     122  UNL122      0.0241
    976 H          21.4880    7.0831    0.3501 H     122  UNL122      0.0241
    977 CL         24.1777    6.3558    4.7962 Cl    123  UNL123     -0.1257
    978 C          22.6352    5.4741    4.7962 C.3   123  UNL123      0.0198
    979 C          21.4707    6.4419    4.7962 C.3   123  UNL123     -0.0517
    980 H          22.6106    4.8370    3.9076 H     123  UNL123      0.0427
    981 H          22.6106    4.8370    5.6847 H     123  UNL123      0.0427
    982 H          20.5238    5.8926    4.7962 H     123  UNL123      0.0241
    983 H          21.4880    7.0831    5.6836 H     123  UNL123      0.0241
    984 H          21.4880    7.0831    3.9088 H     123  UNL123      0.0241
    985 CL         24.1204    6.5197    8.4205 Cl    124  UNL124     -0.1257
    986 C          22.5779    5.6380    8.4205 C.3   124  UNL124      0.0198
    987 C          21.4134    6.6058    8.4205 C.3   124  UNL124     -0.0517
    988 H          22.5533    5.0009    7.5319 H     124  UNL124      0.0427
    989 H          22.5533    5.0009    9.3090 H     124  UNL124      0.0427
    990 H          20.4665    6.0565    8.4205 H     124  UNL124      0.0241
    991 H          21.4307    7.2470    9.3079 H     124  UNL124      0.0241
    992 H          21.4307    7.2470    7.5331 H     124  UNL124      0.0241
    993 CL         24.1736   10.3941    1.1781 Cl    125  UNL125     -0.1257
    994 C          22.6311    9.5124    1.1781 C.3   125  UNL125      0.0198
    995 C          21.4666   10.4802    1.1781 C.3   125  UNL125     -0.0517
    996 H          22.6065    8.8753    0.2895 H     125  UNL125      0.0427
    997 H          22.6065    8.8753    2.0666 H     125  UNL125      0.0427
    998 H          20.5197    9.9309    1.1781 H     125  UNL125      0.0241
    999 H          21.4839   11.1214    2.0655 H     125  UNL125      0.0241
   1000 H          21.4839   11.1214    0.2907 H     125  UNL125      0.0241
   1001 CL         24.4568    9.8150    4.6058 Cl    126  UNL126     -0.1257
   1002 C          22.9143    8.9333    4.6058 C.3   126  UNL126      0.0198
   1003 C          21.7498    9.9011    4.6058 C.3   126  UNL126     -0.0517
   1004 H          22.8897    8.2962    3.7172 H     126  UNL126      0.0427
   1005 H          22.8897    8.2962    5.4943 H     126  UNL126      0.0427
   1006 H          20.8029    9.3518    4.6058 H     126  UNL126      0.0241
   1007 H          21.7671   10.5423    5.4932 H     126  UNL126      0.0241
   1008 H          21.7671   10.5423    3.7184 H     126  UNL126      0.0241
   1009 CL         23.9196   10.5830    7.9628 Cl    127  UNL127     -0.1257
   1010 C          22.3771    9.7013    7.9628 C.3   127  UNL127      0.0198
   1011 C          21.2126   10.6691    7.9628 C.3   127  UNL127     -0.0517
   1012 H          22.3525    9.0642    7.0742 H     127  UNL127      0.0427
   1013 H          22.3525    9.0642    8.8513 H     127  UNL127      0.0427
   1014 H          20.2657   10.1198    7.9628 H     127  UNL127      0.0241
   1015 H          21.2299   11.3103    8.8502 H     127  UNL127      0.0241
   1016 H          21.2299   11.3103    7.0754 H     127  UNL127      0.0241
   1017 CL         24.1777   10.1350   11.5855 Cl    128  UNL128     -0.1257
   1018 C          22.6352    9.2533   11.5855 C.3   128  UNL128      0.0198
   1019 C          21.4707   10.2211   11.5855 C.3   128  UNL128     -0.0517
   1020 H          22.6106    8.6162   10.6969 H     128  UNL128      0.0427
   1021 H          22.6106    8.6162   12.4740 H     128  UNL128      0.0427
   1022 H          20.5238    9.6718   11.5855 H     128  UNL128      0.0241
   1023 H          21.4880   10.8623   12.4729 H     128  UNL128      0.0241
   1024 H          21.4880   10.8623   10.6981 H     128  UNL128      0.0241
   1025 CL         22.6594   13.3026    0.6403 Cl    129  UNL129     -0.1257
   1026 C          21.1169   13.5317    1.4917 C.3   129  UNL129      0.0198
   1027 C          19.9524   13.2802    0.5571 C.3   129  UNL129     -0.0517
   1028 H          21.0923   12.8391    2.3378 H     129  UNL129      0.0427
   1029 H          21.0923   14.5552    1.8761 H     129  UNL129      0.0427
   1030 H          19.0055   13.4230    1.0876 H     129  UNL129      0.0241
   1031 H          19.9697   13.9706   -0.2926 H     129  UNL129      0.0241
   1032 H          19.9697   12.2567    0.1685 H     129  UNL129      0.0241
   1033 CL         24.5469   13.3067    4.5853 Cl    130  UNL130     -0.1257
   1034 C          23.0044   13.5358    3.7338 C.3   130  UNL130      0.0198
   1035 C          21.8399   13.2843    4.6684 C.3   130  UNL130     -0.0517
   1036 H          22.9798   14.5594    3.3495 H     130  UNL130      0.0427
   1037 H          22.9798   12.8433    2.8878 H     130  UNL130      0.0427
   1038 H          20.8930   13.4270    4.1380 H     130  UNL130      0.0241
   1039 H          21.8572   12.2608    5.0570 H     130  UNL130      0.0241
   1040 H          21.8572   13.9746    5.5181 H     130  UNL130      0.0241
   1041 CL         25.0421   13.6359    8.3252 Cl    131  UNL131     -0.1257
   1042 C          23.4996   13.8650    7.4738 C.3   131  UNL131      0.0198
   1043 C          22.3351   13.6135    8.4084 C.3   131  UNL131     -0.0517
   1044 H          23.4750   14.8886    7.0895 H     131  UNL131      0.0427
   1045 H          23.4750   13.1725    6.6277 H     131  UNL131      0.0427
   1046 H          21.3882   13.7563    7.8779 H     131  UNL131      0.0241
   1047 H          22.3524   12.5900    8.7970 H     131  UNL131      0.0241
   1048 H          22.3524   14.3039    9.2581 H     131  UNL131      0.0241
   1049 CL         24.3377   13.7542   11.9613 Cl    132  UNL132     -0.1257
   1050 C          22.7952   12.8725   11.9613 C.3   132  UNL132      0.0198
   1051 C          21.6307   13.8403   11.9613 C.3   132  UNL132     -0.0517
   1052 H          22.7706   12.2354   11.0727 H     132  UNL132      0.0427
   1053 H          22.7706   12.2354   12.8498 H     132  UNL132      0.0427
   1054 H          20.6838   13.2910   11.9613 H     132  UNL132      0.0241
   1055 H          21.6480   14.4815   12.8487 H     132  UNL132      0.0241
   1056 H          21.6480   14.4815   11.0739 H     132  UNL132      0.0241
   1057 CL         23.4767   18.1848   -0.8232 Cl    133  UNL133     -0.1257
   1058 C          21.9342   17.3031   -0.8232 C.3   133  UNL133      0.0198
   1059 C          20.7697   18.2709   -0.8232 C.3   133  UNL133     -0.0517
   1060 H          21.9096   16.6660   -1.7118 H     133  UNL133      0.0427
   1061 H          21.9096   16.6660    0.0653 H     133  UNL133      0.0427
   1062 H          19.8228   17.7216   -0.8232 H     133  UNL133      0.0241
   1063 H          20.7870   18.9121    0.0642 H     133  UNL133      0.0241
   1064 H          20.7870   18.9121   -1.7106 H     133  UNL133      0.0241
   1065 CL         20.7024   19.1736    3.4761 Cl    134  UNL134     -0.1257
   1066 C          22.1818   18.1897    3.4761 C.3   134  UNL134      0.0198
   1067 C          21.8383   16.7150    3.4761 C.3   134  UNL134     -0.0517
   1068 H          22.7623   18.4532    2.5875 H     134  UNL134      0.0427
   1069 H          22.7623   18.4532    4.3646 H     134  UNL134      0.0427
   1070 H          22.7537   16.1146    3.4761 H     134  UNL134      0.0241
   1071 H          21.2573   16.4431    4.3635 H     134  UNL134      0.0241
   1072 H          21.2573   16.4431    2.5887 H     134  UNL134      0.0241
   1073 CL         20.9776   17.6934    6.0979 Cl    135  UNL135     -0.1257
   1074 C          19.4351   16.8117    6.0979 C.3   135  UNL135      0.0198
   1075 C          18.2706   17.7795    6.0979 C.3   135  UNL135     -0.0517
   1076 H          19.4105   16.1746    5.2093 H     135  UNL135      0.0427
   1077 H          19.4105   16.1746    6.9864 H     135  UNL135      0.0427
   1078 H          17.3237   17.2302    6.0979 H     135  UNL135      0.0241
   1079 H          18.2879   18.4207    6.9853 H     135  UNL135      0.0241
   1080 H          18.2879   18.4207    5.2105 H     135  UNL135      0.0241
   1081 CL         20.9139   16.0680    8.5673 Cl    136  UNL136     -0.1257
   1082 C          20.8576   17.8314    8.7766 C.3   136  UNL136      0.0198
   1083 C          20.4751   18.1852   10.1983 C.3   136  UNL136     -0.0517
   1084 H          21.8444   18.2324    8.5288 H     136  UNL136      0.0427
   1085 H          20.1284   18.2324    8.0670 H     136  UNL136      0.0427
   1086 H          20.4422   19.2725   10.3205 H     136  UNL136      0.0241
   1087 H          19.4874   17.7876   10.4538 H     136  UNL136      0.0241
   1088 H          21.2012   17.7876   10.9149 H     136  UNL136      0.0241
   1089 CL         23.4611   21.6326    1.1105 Cl    137  UNL137     -0.1257
   1090 C          21.9186   20.7509    1.1105 C.3   137  UNL137      0.0198
   1091 C          20.7541   21.7187    1.1105 C.3   137  UNL137     -0.0517
   1092 H          21.8940   20.1138    0.2219 H     137  UNL137      0.0427
   1093 H          21.8940   20.1138    1.9990 H     137  UNL137      0.0427
   1094 H          19.8072   21.1694    1.1105 H     137  UNL137      0.0241
   1095 H          20.7714   22.3599    1.9979 H     137  UNL137      0.0241
   1096 H          20.7714   22.3599    0.2231 H     137  UNL137      0.0241
   1097 CL         23.9648   21.8291    4.7194 Cl    138  UNL138     -0.1257
   1098 C          22.4223   20.9474    4.7194 C.3   138  UNL138      0.0198
   1099 C          21.2578   21.9152    4.7194 C.3   138  UNL138     -0.0517
   1100 H          22.3977   20.3103    3.8308 H     138  UNL138      0.0427
   1101 H          22.3977   20.3103    5.6079 H     138  UNL138      0.0427
   1102 H          20.3109   21.3659    4.7194 H     138  UNL138      0.0241
   1103 H          21.2751   22.5564    5.6068 H     138  UNL138      0.0241
   1104 H          21.2751   22.5564    3.8320 H     138  UNL138      0.0241
   1105 CL         23.2645   21.4726    8.2597 Cl    139  UNL139     -0.1257
   1106 C          21.7220   20.5909    8.2597 C.3   139  UNL139      0.0198
   1107 C          20.5575   21.5587    8.2597 C.3   139  UNL139     -0.0517
   1108 H          21.6974   19.9538    7.3711 H     139  UNL139      0.0427
   1109 H          21.6974   19.9538    9.1482 H     139  UNL139      0.0427
   1110 H          19.6106   21.0094    8.2597 H     139  UNL139      0.0241
   1111 H          20.5748   22.1999    9.1471 H     139  UNL139      0.0241
   1112 H          20.5748   22.1999    7.3723 H     139  UNL139      0.0241
   1113 CL         24.2950   21.1286   11.5862 Cl    140  UNL140     -0.1257
   1114 C          22.7525   20.2469   11.5862 C.3   140  UNL140      0.0198
   1115 C          21.5880   21.2147   11.5862 C.3   140  UNL140     -0.0517
   1116 H          22.7279   19.6098   10.6976 H     140  UNL140      0.0427
   1117 H          22.7279   19.6098   12.4747 H     140  UNL140      0.0427
   1118 H          20.6411   20.6654   11.5862 H     140  UNL140      0.0241
   1119 H          21.6053   21.8559   12.4736 H     140  UNL140      0.0241
   1120 H          21.6053   21.8559   10.6988 H     140  UNL140      0.0241
   1121 CL         24.1777   25.2518    1.2232 Cl    141  UNL141     -0.1257
   1122 C          22.6352   24.3701    1.2232 C.3   141  UNL141      0.0198
   1123 C          21.4707   25.3379    1.2232 C.3   141  UNL141     -0.0517
   1124 H          22.6106   23.7330    0.3346 H     141  UNL141      0.0427
   1125 H          22.6106   23.7330    2.1117 H     141  UNL141      0.0427
   1126 H          20.5238   24.7886    1.2232 H     141  UNL141      0.0241
   1127 H          21.4880   25.9791    2.1106 H     141  UNL141      0.0241
   1128 H          21.4880   25.9791    0.3358 H     141  UNL141      0.0241
   1129 CL         24.1777   25.2518    4.7266 Cl    142  UNL142     -0.1257
   1130 C          22.6352   24.3701    4.7266 C.3   142  UNL142      0.0198
   1131 C          21.4707   25.3379    4.7266 C.3   142  UNL142     -0.0517
   1132 H          22.6106   23.7330    3.8380 H     142  UNL142      0.0427
   1133 H          22.6106   23.7330    5.6151 H     142  UNL142      0.0427
   1134 H          20.5238   24.7886    4.7266 H     142  UNL142      0.0241
   1135 H          21.4880   25.9791    5.6140 H     142  UNL142      0.0241
   1136 H          21.4880   25.9791    3.8392 H     142  UNL142      0.0241
   1137 CL         24.1777   25.2518    8.2720 Cl    143  UNL143     -0.1257
   1138 C          22.6352   24.3701    8.2720 C.3   143  UNL143      0.0198
   1139 C          21.4707   25.3379    8.2720 C.3   143  UNL143     -0.0517
   1140 H          22.6106   23.7330    7.3834 H     143  UNL143      0.0427
   1141 H          22.6106   23.7330    9.1605 H     143  UNL143      0.0427
   1142 H          20.5238   24.7886    8.2720 H     143  UNL143      0.0241
   1143 H          21.4880   25.9791    9.1594 H     143  UNL143      0.0241
   1144 H          21.4880   25.9791    7.3846 H     143  UNL143      0.0241
   1145 CL         24.1777   25.2518   11.9705 Cl    144  UNL144     -0.1257
   1146 C          22.6352   24.3701   11.9705 C.3   144  UNL144      0.0198
   1147 C          21.4707   25.3379   11.9705 C.3   144  UNL144     -0.0517
   1148 H          22.6106   23.7330   11.0819 H     144  UNL144      0.0427
   1149 H          22.6106   23.7330   12.8590 H     144  UNL144      0.0427
   1150 H          20.5238   24.7886   11.9705 H     144  UNL144      0.0241
   1151 H          21.4880   25.9791   12.8579 H     144  UNL144      0.0241
   1152 H          21.4880   25.9791   11.0831 H     144  UNL144      0.0241
   1153 CL         24.1777   29.0310    1.1802 Cl    145  UNL145     -0.1257
   1154 C          22.6352   28.1493    1.1802 C.3   145  UNL145      0.0198
   1155 C          21.4707   29.1171    1.1802 C.3   145  UNL145     -0.0517
   1156 H          22.6106   27.5122    0.2916 H     145  UNL145      0.0427
   1157 H          22.6106   27.5122    2.0687 H     145  UNL145      0.0427
   1158 H          20.5238   28.5678    1.1802 H     145  UNL145      0.0241
   1159 H          21.4880   29.7583    2.0676 H     145  UNL145      0.0241
   1160 H          21.4880   29.7583    0.2928 H     145  UNL145      0.0241
   1161 CL         24.1777   29.0310    4.6969 Cl    146  UNL146     -0.1257
   1162 C          22.6352   28.1493    4.6969 C.3   146  UNL146      0.0198
   1163 C          21.4707   29.1171    4.6969 C.3   146  UNL146     -0.0517
   1164 H          22.6106   27.5122    3.8083 H     146  UNL146      0.0427
   1165 H          22.6106   27.5122    5.5854 H     146  UNL146      0.0427
   1166 H          20.5238   28.5678    4.6969 H     146  UNL146      0.0241
   1167 H          21.4880   29.7583    5.5843 H     146  UNL146      0.0241
   1168 H          21.4880   29.7583    3.8095 H     146  UNL146      0.0241
   1169 CL         24.1777   29.0310    8.2615 Cl    147  UNL147     -0.1257
   1170 C          22.6352   28.1493    8.2615 C.3   147  UNL147      0.0198
   1171 C          21.4707   29.1171    8.2615 C.3   147  UNL147     -0.0517
   1172 H          22.6106   27.5122    7.3729 H     147  UNL147      0.0427
   1173 H          22.6106   27.5122    9.1500 H     147  UNL147      0.0427
   1174 H          20.5238   28.5678    8.2615 H     147  UNL147      0.0241
   1175 H          21.4880   29.7583    9.1489 H     147  UNL147      0.0241
   1176 H          21.4880   29.7583    7.3741 H     147  UNL147      0.0241
   1177 CL         24.1777   29.0310   11.8835 Cl    148  UNL148     -0.1257
   1178 C          22.6352   28.1493   11.8835 C.3   148  UNL148      0.0198
   1179 C          21.4707   29.1171   11.8835 C.3   148  UNL148     -0.0517
   1180 H          22.6106   27.5122   10.9949 H     148  UNL148      0.0427
   1181 H          22.6106   27.5122   12.7720 H     148  UNL148      0.0427
   1182 H          20.5238   28.5678   11.8835 H     148  UNL148      0.0241
   1183 H          21.4880   29.7583   12.7709 H     148  UNL148      0.0241
   1184 H          21.4880   29.7583   10.9961 H     148  UNL148      0.0241
   1185 CL         29.7060    2.5767   -0.6632 Cl    149  UNL149     -0.1257
   1186 C          28.1635    1.6950   -0.6632 C.3   149  UNL149      0.0198
   1187 C          26.9990    2.6628   -0.6632 C.3   149  UNL149     -0.0517
   1188 H          28.1389    1.0579   -1.5518 H     149  UNL149      0.0427
   1189 H          28.1389    1.0579    0.2253 H     149  UNL149      0.0427
   1190 H          26.0521    2.1135   -0.6632 H     149  UNL149      0.0241
   1191 H          27.0163    3.3040    0.2242 H     149  UNL149      0.0241
   1192 H          27.0163    3.3040   -1.5506 H     149  UNL149      0.0241
   1193 CL         29.7060    2.5767    2.7173 Cl    150  UNL150     -0.1257
   1194 C          28.1635    1.6950    2.7173 C.3   150  UNL150      0.0198
   1195 C          26.9990    2.6628    2.7173 C.3   150  UNL150     -0.0517
   1196 H          28.1389    1.0579    1.8287 H     150  UNL150      0.0427
   1197 H          28.1389    1.0579    3.6058 H     150  UNL150      0.0427
   1198 H          26.0521    2.1135    2.7173 H     150  UNL150      0.0241
   1199 H          27.0163    3.3040    3.6047 H     150  UNL150      0.0241
   1200 H          27.0163    3.3040    1.8299 H     150  UNL150      0.0241
   1201 CL         29.7060    2.5767    6.1839 Cl    151  UNL151     -0.1257
   1202 C          28.1635    1.6950    6.1839 C.3   151  UNL151      0.0198
   1203 C          26.9990    2.6628    6.1839 C.3   151  UNL151     -0.0517
   1204 H          28.1389    1.0579    5.2953 H     151  UNL151      0.0427
   1205 H          28.1389    1.0579    7.0724 H     151  UNL151      0.0427
   1206 H          26.0521    2.1135    6.1839 H     151  UNL151      0.0241
   1207 H          27.0163    3.3040    7.0713 H     151  UNL151      0.0241
   1208 H          27.0163    3.3040    5.2965 H     151  UNL151      0.0241
   1209 CL         29.7060    2.5767    9.6197 Cl    152  UNL152     -0.1257
   1210 C          28.1635    1.6950    9.6197 C.3   152  UNL152      0.0198
   1211 C          26.9990    2.6628    9.6197 C.3   152  UNL152     -0.0517
   1212 H          28.1389    1.0579    8.7311 H     152  UNL152      0.0427
   1213 H          28.1389    1.0579   10.5082 H     152  UNL152      0.0427
   1214 H          26.0521    2.1135    9.6197 H     152  UNL152      0.0241
   1215 H          27.0163    3.3040   10.5071 H     152  UNL152      0.0241
   1216 H          27.0163    3.3040    8.7323 H     152  UNL152      0.0241
   1217 CL         29.7060    6.3558   -0.7369 Cl    153  UNL153     -0.1257
   1218 C          28.1635    5.4741   -0.7369 C.3   153  UNL153      0.0198
   1219 C          26.9990    6.4419   -0.7369 C.3   153  UNL153     -0.0517
   1220 H          28.1389    4.8370   -1.6255 H     153  UNL153      0.0427
   1221 H          28.1389    4.8370    0.1516 H     153  UNL153      0.0427
   1222 H          26.0521    5.8926   -0.7369 H     153  UNL153      0.0241
   1223 H          27.0163    7.0831    0.1505 H     153  UNL153      0.0241
   1224 H          27.0163    7.0831   -1.6243 H     153  UNL153      0.0241
   1225 CL         29.7060    6.3558    2.7173 Cl    154  UNL154     -0.1257
   1226 C          28.1635    5.4741    2.7173 C.3   154  UNL154      0.0198
   1227 C          26.9990    6.4419    2.7173 C.3   154  UNL154     -0.0517
   1228 H          28.1389    4.8370    1.8287 H     154  UNL154      0.0427
   1229 H          28.1389    4.8370    3.6058 H     154  UNL154      0.0427
   1230 H          26.0521    5.8926    2.7173 H     154  UNL154      0.0241
   1231 H          27.0163    7.0831    3.6047 H     154  UNL154      0.0241
   1232 H          27.0163    7.0831    1.8299 H     154  UNL154      0.0241
   1233 CL         29.7060    6.3558    6.0979 Cl    155  UNL155     -0.1257
   1234 C          28.1635    5.4741    6.0979 C.3   155  UNL155      0.0198
   1235 C          26.9990    6.4419    6.0979 C.3   155  UNL155     -0.0517
   1236 H          28.1389    4.8370    5.2093 H     155  UNL155      0.0427
   1237 H          28.1389    4.8370    6.9864 H     155  UNL155      0.0427
   1238 H          26.0521    5.8926    6.0979 H     155  UNL155      0.0241
   1239 H          27.0163    7.0831    6.9853 H     155  UNL155      0.0241
   1240 H          27.0163    7.0831    5.2105 H     155  UNL155      0.0241
   1241 CL         29.7060    6.3558    9.6177 Cl    156  UNL156     -0.1257
   1242 C          28.1635    5.4741    9.6177 C.3   156  UNL156      0.0198
   1243 C          26.9990    6.4419    9.6177 C.3   156  UNL156     -0.0517
   1244 H          28.1389    4.8370    8.7291 H     156  UNL156      0.0427
   1245 H          28.1389    4.8370   10.5062 H     156  UNL156      0.0427
   1246 H          26.0521    5.8926    9.6177 H     156  UNL156      0.0241
   1247 H          27.0163    7.0831   10.5051 H     156  UNL156      0.0241
   1248 H          27.0163    7.0831    8.7303 H     156  UNL156      0.0241
   1249 CL         29.7060   10.1350   -0.6673 Cl    157  UNL157     -0.1257
   1250 C          28.1635    9.2533   -0.6673 C.3   157  UNL157      0.0198
   1251 C          26.9990   10.2211   -0.6673 C.3   157  UNL157     -0.0517
   1252 H          28.1389    8.6162   -1.5559 H     157  UNL157      0.0427
   1253 H          28.1389    8.6162    0.2212 H     157  UNL157      0.0427
   1254 H          26.0521    9.6718   -0.6673 H     157  UNL157      0.0241
   1255 H          27.0163   10.8623    0.2201 H     157  UNL157      0.0241
   1256 H          27.0163   10.8623   -1.5547 H     157  UNL157      0.0241
   1257 CL         29.7060   10.1350    2.7173 Cl    158  UNL158     -0.1257
   1258 C          28.1635    9.2533    2.7173 C.3   158  UNL158      0.0198
   1259 C          26.9990   10.2211    2.7173 C.3   158  UNL158     -0.0517
   1260 H          28.1389    8.6162    1.8287 H     158  UNL158      0.0427
   1261 H          28.1389    8.6162    3.6058 H     158  UNL158      0.0427
   1262 H          26.0521    9.6718    2.7173 H     158  UNL158      0.0241
   1263 H          27.0163   10.8623    3.6047 H     158  UNL158      0.0241
   1264 H          27.0163   10.8623    1.8299 H     158  UNL158      0.0241
   1265 CL         29.7060   10.1350    6.0979 Cl    159  UNL159     -0.1257
   1266 C          28.1635    9.2533    6.0979 C.3   159  UNL159      0.0198
   1267 C          26.9990   10.2211    6.0979 C.3   159  UNL159     -0.0517
   1268 H          28.1389    8.6162    5.2093 H     159  UNL159      0.0427
   1269 H          28.1389    8.6162    6.9864 H     159  UNL159      0.0427
   1270 H          26.0521    9.6718    6.0979 H     159  UNL159      0.0241
   1271 H          27.0163   10.8623    6.9853 H     159  UNL159      0.0241
   1272 H          27.0163   10.8623    5.2105 H     159  UNL159      0.0241
   1273 CL         29.7060   10.1350    9.5767 Cl    160  UNL160     -0.1257
   1274 C          28.1635    9.2533    9.5767 C.3   160  UNL160      0.0198
   1275 C          26.9990   10.2211    9.5767 C.3   160  UNL160     -0.0517
   1276 H          28.1389    8.6162    8.6881 H     160  UNL160      0.0427
   1277 H          28.1389    8.6162   10.4652 H     160  UNL160      0.0427
   1278 H          26.0521    9.6718    9.5767 H     160  UNL160      0.0241
   1279 H          27.0163   10.8623   10.4641 H     160  UNL160      0.0241
   1280 H          27.0163   10.8623    8.6893 H     160  UNL160      0.0241
   1281 CL         29.7060   13.9142   -0.6632 Cl    161  UNL161     -0.1257
   1282 C          28.1635   13.0325   -0.6632 C.3   161  UNL161      0.0198
   1283 C          26.9990   14.0003   -0.6632 C.3   161  UNL161     -0.0517
   1284 H          28.1389   12.3954   -1.5518 H     161  UNL161      0.0427
   1285 H          28.1389   12.3954    0.2253 H     161  UNL161      0.0427
   1286 H          26.0521   13.4510   -0.6632 H     161  UNL161      0.0241
   1287 H          27.0163   14.6415    0.2242 H     161  UNL161      0.0241
   1288 H          27.0163   14.6415   -1.5506 H     161  UNL161      0.0241
   1289 CL         29.7060   13.9142    2.7173 Cl    162  UNL162     -0.1257
   1290 C          28.1635   13.0325    2.7173 C.3   162  UNL162      0.0198
   1291 C          26.9990   14.0003    2.7173 C.3   162  UNL162     -0.0517
   1292 H          28.1389   12.3954    1.8287 H     162  UNL162      0.0427
   1293 H          28.1389   12.3954    3.6058 H     162  UNL162      0.0427
   1294 H          26.0521   13.4510    2.7173 H     162  UNL162      0.0241
   1295 H          27.0163   14.6415    3.6047 H     162  UNL162      0.0241
   1296 H          27.0163   14.6415    1.8299 H     162  UNL162      0.0241
   1297 CL         29.7060   14.0571    6.0979 Cl    163  UNL163     -0.1257
   1298 C          28.1635   13.1754    6.0979 C.3   163  UNL163      0.0198
   1299 C          26.9990   14.1432    6.0979 C.3   163  UNL163     -0.0517
   1300 H          28.1389   12.5383    5.2093 H     163  UNL163      0.0427
   1301 H          28.1389   12.5383    6.9864 H     163  UNL163      0.0427
   1302 H          26.0521   13.5939    6.0979 H     163  UNL163      0.0241
   1303 H          27.0163   14.7844    6.9853 H     163  UNL163      0.0241
   1304 H          27.0163   14.7844    5.2105 H     163  UNL163      0.0241
   1305 CL         30.6561   13.9142    9.4784 Cl    164  UNL164     -0.1257
   1306 C          29.1136   13.0325    9.4784 C.3   164  UNL164      0.0198
   1307 C          27.9491   14.0003    9.4784 C.3   164  UNL164     -0.0517
   1308 H          29.0890   12.3954    8.5898 H     164  UNL164      0.0427
   1309 H          29.0890   12.3954   10.3669 H     164  UNL164      0.0427
   1310 H          27.0022   13.4510    9.4784 H     164  UNL164      0.0241
   1311 H          27.9664   14.6415   10.3658 H     164  UNL164      0.0241
   1312 H          27.9664   14.6415    8.5910 H     164  UNL164      0.0241
   1313 CL         29.7060   17.6934   -0.6632 Cl    165  UNL165     -0.1257
   1314 C          28.1635   16.8117   -0.6632 C.3   165  UNL165      0.0198
   1315 C          26.9990   17.7795   -0.6632 C.3   165  UNL165     -0.0517
   1316 H          28.1389   16.1746   -1.5518 H     165  UNL165      0.0427
   1317 H          28.1389   16.1746    0.2253 H     165  UNL165      0.0427
   1318 H          26.0521   17.2302   -0.6632 H     165  UNL165      0.0241
   1319 H          27.0163   18.4207    0.2242 H     165  UNL165      0.0241
   1320 H          27.0163   18.4207   -1.5506 H     165  UNL165      0.0241
   1321 CL         23.8779   16.6050    1.3107 Cl    166  UNL166     -0.1257
   1322 C          25.5429   16.8340    1.8870 C.3   166  UNL166      0.0198
   1323 C          25.6278   16.5826    3.3778 C.3   166  UNL166     -0.0517
   1324 H          26.1880   16.1415    1.3391 H     166  UNL166      0.0427
   1325 H          25.8449   17.8576    1.6481 H     166  UNL166      0.0427
   1326 H          26.6557   16.7253    3.7263 H     166  UNL166      0.0241
   1327 H          24.9848   17.2729    3.9336 H     166  UNL166      0.0241
   1328 H          25.3275   15.5591    3.6250 H     166  UNL166      0.0241
   1329 CL         29.7060   17.6934    6.0979 Cl    167  UNL167     -0.1257
   1330 C          28.1635   16.8117    6.0979 C.3   167  UNL167      0.0198
   1331 C          26.9990   17.7795    6.0979 C.3   167  UNL167     -0.0517
   1332 H          28.1389   16.1746    5.2093 H     167  UNL167      0.0427
   1333 H          28.1389   16.1746    6.9864 H     167  UNL167      0.0427
   1334 H          26.0521   17.2302    6.0979 H     167  UNL167      0.0241
   1335 H          27.0163   18.4207    6.9853 H     167  UNL167      0.0241
   1336 H          27.0163   18.4207    5.2105 H     167  UNL167      0.0241
   1337 CL         27.0453   17.5334    9.6384 Cl    168  UNL168     -0.1257
   1338 C          25.5028   16.6517    9.6384 C.3   168  UNL168      0.0198
   1339 C          24.3383   17.6195    9.6384 C.3   168  UNL168     -0.0517
   1340 H          25.4782   16.0146    8.7498 H     168  UNL168      0.0427
   1341 H          25.4782   16.0146   10.5269 H     168  UNL168      0.0427
   1342 H          23.3914   17.0702    9.6384 H     168  UNL168      0.0241
   1343 H          24.3556   18.2607   10.5258 H     168  UNL168      0.0241
   1344 H          24.3556   18.2607    8.7510 H     168  UNL168      0.0241
   1345 CL         30.1499   21.3881   -0.5967 Cl    169  UNL169     -0.1257
   1346 C          28.6074   20.5064   -0.5967 C.3   169  UNL169      0.0198
   1347 C          27.4429   21.4742   -0.5967 C.3   169  UNL169     -0.0517
   1348 H          28.5828   19.8693   -1.4852 H     169  UNL169      0.0427
   1349 H          28.5828   19.8693    0.2918 H     169  UNL169      0.0427
   1350 H          26.4960   20.9249   -0.5967 H     169  UNL169      0.0241
   1351 H          27.4602   22.1154    0.2908 H     169  UNL169      0.0241
   1352 H          27.4602   22.1154   -1.4840 H     169  UNL169      0.0241
   1353 CL         25.8930   22.1449    1.8324 Cl    170  UNL170     -0.1257
   1354 C          27.0196   20.8512    2.2947 C.3   170  UNL170      0.0198
   1355 C          26.3314   19.8433    3.1910 C.3   170  UNL170     -0.0517
   1356 H          27.3799   20.3742    1.3789 H     170  UNL170      0.0427
   1357 H          27.8690   21.3108    2.8077 H     170  UNL170      0.0427
   1358 H          27.0306   19.0493    3.4721 H     170  UNL170      0.0241
   1359 H          25.9683   20.3135    4.1108 H     170  UNL170      0.0241
   1360 H          25.4798   19.3781    2.6838 H     170  UNL170      0.0241
   1361 CL         29.4915   21.4767    6.0979 Cl    171  UNL171     -0.1257
   1362 C          27.9490   20.5950    6.0979 C.3   171  UNL171      0.0198
   1363 C          26.7845   21.5628    6.0979 C.3   171  UNL171     -0.0517
   1364 H          27.9244   19.9579    5.2093 H     171  UNL171      0.0427
   1365 H          27.9244   19.9579    6.9864 H     171  UNL171      0.0427
   1366 H          25.8376   21.0135    6.0979 H     171  UNL171      0.0241
   1367 H          26.8018   22.2040    6.9853 H     171  UNL171      0.0241
   1368 H          26.8018   22.2040    5.2105 H     171  UNL171      0.0241
   1369 CL         25.9409   22.9528    9.4784 Cl    172  UNL172     -0.1257
   1370 C          27.4203   21.9689    9.4784 C.3   172  UNL172      0.0198
   1371 C          27.0769   20.4942    9.4784 C.3   172  UNL172     -0.0517
   1372 H          28.0009   22.2323    8.5898 H     172  UNL172      0.0427
   1373 H          28.0009   22.2323   10.3669 H     172  UNL172      0.0427
   1374 H          27.9922   19.8938    9.4784 H     172  UNL172      0.0241
   1375 H          26.4959   20.2223   10.3658 H     172  UNL172      0.0241
   1376 H          26.4959   20.2223    8.5910 H     172  UNL172      0.0241
   1377 CL         29.4398   25.5016   -0.6632 Cl    173  UNL173     -0.1257
   1378 C          27.8973   24.6199   -0.6632 C.3   173  UNL173      0.0198
   1379 C          26.7328   25.5877   -0.6632 C.3   173  UNL173     -0.0517
   1380 H          27.8727   23.9828   -1.5518 H     173  UNL173      0.0427
   1381 H          27.8727   23.9828    0.2253 H     173  UNL173      0.0427
   1382 H          25.7859   25.0384   -0.6632 H     173  UNL173      0.0241
   1383 H          26.7501   26.2289    0.2242 H     173  UNL173      0.0241
   1384 H          26.7501   26.2289   -1.5506 H     173  UNL173      0.0241
   1385 CL         29.7060   24.7071    2.7173 Cl    174  UNL174     -0.1257
   1386 C          28.1635   23.8254    2.7173 C.3   174  UNL174      0.0198
   1387 C          26.9990   24.7932    2.7173 C.3   174  UNL174     -0.0517
   1388 H          28.1389   23.1883    1.8287 H     174  UNL174      0.0427
   1389 H          28.1389   23.1883    3.6058 H     174  UNL174      0.0427
   1390 H          26.0521   24.2439    2.7173 H     174  UNL174      0.0241
   1391 H          27.0163   25.4344    3.6047 H     174  UNL174      0.0241
   1392 H          27.0163   25.4344    1.8299 H     174  UNL174      0.0241
   1393 CL         29.7060   25.2518    6.0979 Cl    175  UNL175     -0.1257
   1394 C          28.1635   24.3701    6.0979 C.3   175  UNL175      0.0198
   1395 C          26.9990   25.3379    6.0979 C.3   175  UNL175     -0.0517
   1396 H          28.1389   23.7330    5.2093 H     175  UNL175      0.0427
   1397 H          28.1389   23.7330    6.9864 H     175  UNL175      0.0427
   1398 H          26.0521   24.7886    6.0979 H     175  UNL175      0.0241
   1399 H          27.0163   25.9791    6.9853 H     175  UNL175      0.0241
   1400 H          27.0163   25.9791    5.2105 H     175  UNL175      0.0241
   1401 CL         29.5955   25.6765    9.4825 Cl    176  UNL176     -0.1257
   1402 C          28.0530   24.7948    9.4825 C.3   176  UNL176      0.0198
   1403 C          26.8885   25.7626    9.4825 C.3   176  UNL176     -0.0517
   1404 H          28.0284   24.1577    8.5939 H     176  UNL176      0.0427
   1405 H          28.0284   24.1577   10.3710 H     176  UNL176      0.0427
   1406 H          25.9416   25.2133    9.4825 H     176  UNL176      0.0241
   1407 H          26.9058   26.4038   10.3699 H     176  UNL176      0.0241
   1408 H          26.9058   26.4038    8.5951 H     176  UNL176      0.0241
   1409 CL         29.7060   29.0310   -0.6632 Cl    177  UNL177     -0.1257
   1410 C          28.1635   28.1493   -0.6632 C.3   177  UNL177      0.0198
   1411 C          26.9990   29.1171   -0.6632 C.3   177  UNL177     -0.0517
   1412 H          28.1389   27.5122   -1.5518 H     177  UNL177      0.0427
   1413 H          28.1389   27.5122    0.2253 H     177  UNL177      0.0427
   1414 H          26.0521   28.5678   -0.6632 H     177  UNL177      0.0241
   1415 H          27.0163   29.7583    0.2242 H     177  UNL177      0.0241
   1416 H          27.0163   29.7583   -1.5506 H     177  UNL177      0.0241
   1417 CL         29.7060   29.0310    2.7173 Cl    178  UNL178     -0.1257
   1418 C          28.1635   28.1493    2.7173 C.3   178  UNL178      0.0198
   1419 C          26.9990   29.1171    2.7173 C.3   178  UNL178     -0.0517
   1420 H          28.1389   27.5122    1.8287 H     178  UNL178      0.0427
   1421 H          28.1389   27.5122    3.6058 H     178  UNL178      0.0427
   1422 H          26.0521   28.5678    2.7173 H     178  UNL178      0.0241
   1423 H          27.0163   29.7583    3.6047 H     178  UNL178      0.0241
   1424 H          27.0163   29.7583    1.8299 H     178  UNL178      0.0241
   1425 CL         29.7060   29.0310    6.0979 Cl    179  UNL179     -0.1257
   1426 C          28.1635   28.1493    6.0979 C.3   179  UNL179      0.0198
   1427 C          26.9990   29.1171    6.0979 C.3   179  UNL179     -0.0517
   1428 H          28.1389   27.5122    5.2093 H     179  UNL179      0.0427
   1429 H          28.1389   27.5122    6.9864 H     179  UNL179      0.0427
   1430 H          26.0521   28.5678    6.0979 H     179  UNL179      0.0241
   1431 H          27.0163   29.7583    6.9853 H     179  UNL179      0.0241
   1432 H          27.0163   29.7583    5.2105 H     179  UNL179      0.0241
   1433 CL         29.7316   29.0310    9.4784 Cl    180  UNL180     -0.1257
   1434 C          28.1891   28.1493    9.4784 C.3   180  UNL180      0.0198
   1435 C          27.0246   29.1171    9.4784 C.3   180  UNL180     -0.0517
   1436 H          28.1645   27.5122    8.5898 H     180  UNL180      0.0427
   1437 H          28.1645   27.5122   10.3669 H     180  UNL180      0.0427
   1438 H          26.0777   28.5678    9.4784 H     180  UNL180      0.0241
   1439 H          27.0419   29.7583   10.3658 H     180  UNL180      0.0241
   1440 H          27.0419   29.7583    8.5910 H     180  UNL180      0.0241
   1441 CL         35.2344    2.5767    0.9293 Cl    181  UNL181     -0.1257
   1442 C          33.6918    1.6950    0.9293 C.3   181  UNL181      0.0198
   1443 C          32.5274    2.6628    0.9293 C.3   181  UNL181     -0.0517
   1444 H          33.6673    1.0579    0.0407 H     181  UNL181      0.0427
   1445 H          33.6673    1.0579    1.8178 H     181  UNL181      0.0427
   1446 H          31.5805    2.1135    0.9293 H     181  UNL181      0.0241
   1447 H          32.5447    3.3040    1.8167 H     181  UNL181      0.0241
   1448 H          32.5447    3.3040    0.0419 H     181  UNL181      0.0241
   1449 CL         35.2344    2.5767    4.5075 Cl    182  UNL182     -0.1257
   1450 C          33.6918    1.6950    4.5075 C.3   182  UNL182      0.0198
   1451 C          32.5274    2.6628    4.5075 C.3   182  UNL182     -0.0517
   1452 H          33.6673    1.0579    3.6189 H     182  UNL182      0.0427
   1453 H          33.6673    1.0579    5.3960 H     182  UNL182      0.0427
   1454 H          31.5805    2.1135    4.5075 H     182  UNL182      0.0241
   1455 H          32.5447    3.3040    5.3949 H     182  UNL182      0.0241
   1456 H          32.5447    3.3040    3.6201 H     182  UNL182      0.0241
   1457 CL         35.2344    2.5767    8.0836 Cl    183  UNL183     -0.1257
   1458 C          33.6918    1.6950    8.0836 C.3   183  UNL183      0.0198
   1459 C          32.5274    2.6628    8.0836 C.3   183  UNL183     -0.0517
   1460 H          33.6673    1.0579    7.1950 H     183  UNL183      0.0427
   1461 H          33.6673    1.0579    8.9721 H     183  UNL183      0.0427
   1462 H          31.5805    2.1135    8.0836 H     183  UNL183      0.0241
   1463 H          32.5447    3.3040    8.9710 H     183  UNL183      0.0241
   1464 H          32.5447    3.3040    7.1962 H     183  UNL183      0.0241
   1465 CL         35.2344    2.5767   11.7173 Cl    184  UNL184     -0.1257
   1466 C          33.6918    1.6950   11.7173 C.3   184  UNL184      0.0198
   1467 C          32.5274    2.6628   11.7173 C.3   184  UNL184     -0.0517
   1468 H          33.6673    1.0579   10.8287 H     184  UNL184      0.0427
   1469 H          33.6673    1.0579   12.6058 H     184  UNL184      0.0427
   1470 H          31.5805    2.1135   11.7173 H     184  UNL184      0.0241
   1471 H          32.5447    3.3040   12.6047 H     184  UNL184      0.0241
   1472 H          32.5447    3.3040   10.8299 H     184  UNL184      0.0241
   1473 CL         35.2344    6.3558    1.0849 Cl    185  UNL185     -0.1257
   1474 C          33.6918    5.4741    1.0849 C.3   185  UNL185      0.0198
   1475 C          32.5274    6.4419    1.0849 C.3   185  UNL185     -0.0517
   1476 H          33.6673    4.8370    0.1963 H     185  UNL185      0.0427
   1477 H          33.6673    4.8370    1.9734 H     185  UNL185      0.0427
   1478 H          31.5805    5.8926    1.0849 H     185  UNL185      0.0241
   1479 H          32.5447    7.0831    1.9723 H     185  UNL185      0.0241
   1480 H          32.5447    7.0831    0.1975 H     185  UNL185      0.0241
   1481 CL         35.2344    6.3558    4.5802 Cl    186  UNL186     -0.1257
   1482 C          33.6918    5.4741    4.5802 C.3   186  UNL186      0.0198
   1483 C          32.5274    6.4419    4.5802 C.3   186  UNL186     -0.0517
   1484 H          33.6673    4.8370    3.6916 H     186  UNL186      0.0427
   1485 H          33.6673    4.8370    5.4687 H     186  UNL186      0.0427
   1486 H          31.5805    5.8926    4.5802 H     186  UNL186      0.0241
   1487 H          32.5447    7.0831    5.4676 H     186  UNL186      0.0241
   1488 H          32.5447    7.0831    3.6928 H     186  UNL186      0.0241
   1489 CL         35.2344    6.3558    8.0785 Cl    187  UNL187     -0.1257
   1490 C          33.6918    5.4741    8.0785 C.3   187  UNL187      0.0198
   1491 C          32.5274    6.4419    8.0785 C.3   187  UNL187     -0.0517
   1492 H          33.6673    4.8370    7.1899 H     187  UNL187      0.0427
   1493 H          33.6673    4.8370    8.9670 H     187  UNL187      0.0427
   1494 H          31.5805    5.8926    8.0785 H     187  UNL187      0.0241
   1495 H          32.5447    7.0831    8.9659 H     187  UNL187      0.0241
   1496 H          32.5447    7.0831    7.1911 H     187  UNL187      0.0241
   1497 CL         35.2344    6.3558   11.5862 Cl    188  UNL188     -0.1257
   1498 C          33.6918    5.4741   11.5862 C.3   188  UNL188      0.0198
   1499 C          32.5274    6.4419   11.5862 C.3   188  UNL188     -0.0517
   1500 H          33.6673    4.8370   10.6976 H     188  UNL188      0.0427
   1501 H          33.6673    4.8370   12.4747 H     188  UNL188      0.0427
   1502 H          31.5805    5.8926   11.5862 H     188  UNL188      0.0241
   1503 H          32.5447    7.0831   12.4736 H     188  UNL188      0.0241
   1504 H          32.5447    7.0831   10.6988 H     188  UNL188      0.0241
   1505 CL         35.2344   10.1350    1.1843 Cl    189  UNL189     -0.1257
   1506 C          33.6918    9.2533    1.1843 C.3   189  UNL189      0.0198
   1507 C          32.5274   10.2211    1.1843 C.3   189  UNL189     -0.0517
   1508 H          33.6673    8.6162    0.2957 H     189  UNL189      0.0427
   1509 H          33.6673    8.6162    2.0728 H     189  UNL189      0.0427
   1510 H          31.5805    9.6718    1.1843 H     189  UNL189      0.0241
   1511 H          32.5447   10.8623    2.0717 H     189  UNL189      0.0241
   1512 H          32.5447   10.8623    0.2969 H     189  UNL189      0.0241
   1513 CL         35.2344   10.1350    4.7051 Cl    190  UNL190     -0.1257
   1514 C          33.6918    9.2533    4.7051 C.3   190  UNL190      0.0198
   1515 C          32.5274   10.2211    4.7051 C.3   190  UNL190     -0.0517
   1516 H          33.6673    8.6162    3.8165 H     190  UNL190      0.0427
   1517 H          33.6673    8.6162    5.5936 H     190  UNL190      0.0427
   1518 H          31.5805    9.6718    4.7051 H     190  UNL190      0.0241
   1519 H          32.5447   10.8623    5.5925 H     190  UNL190      0.0241
   1520 H          32.5447   10.8623    3.8177 H     190  UNL190      0.0241
   1521 CL         35.2344   10.1350    8.2444 Cl    191  UNL191     -0.1257
   1522 C          33.6918    9.2533    8.2444 C.3   191  UNL191      0.0198
   1523 C          32.5274   10.2211    8.2444 C.3   191  UNL191     -0.0517
   1524 H          33.6673    8.6162    7.3558 H     191  UNL191      0.0427
   1525 H          33.6673    8.6162    9.1329 H     191  UNL191      0.0427
   1526 H          31.5805    9.6718    8.2444 H     191  UNL191      0.0241
   1527 H          32.5447   10.8623    9.1318 H     191  UNL191      0.0241
   1528 H          32.5447   10.8623    7.3570 H     191  UNL191      0.0241
   1529 CL         35.7668    9.7500   11.7068 Cl    192  UNL192     -0.1257
   1530 C          34.2243    8.8683   11.7068 C.3   192  UNL192      0.0198
   1531 C          33.0598    9.8361   11.7068 C.3   192  UNL192     -0.0517
   1532 H          34.1997    8.2312   10.8182 H     192  UNL192      0.0427
   1533 H          34.1997    8.2312   12.5953 H     192  UNL192      0.0427
   1534 H          32.1129    9.2868   11.7068 H     192  UNL192      0.0241
   1535 H          33.0771   10.4773   12.5942 H     192  UNL192      0.0241
   1536 H          33.0771   10.4773   10.8194 H     192  UNL192      0.0241
   1537 CL         35.2344   13.9142    1.2990 Cl    193  UNL193     -0.1257
   1538 C          33.6918   13.0325    1.2990 C.3   193  UNL193      0.0198
   1539 C          32.5274   14.0003    1.2990 C.3   193  UNL193     -0.0517
   1540 H          33.6673   12.3954    0.4104 H     193  UNL193      0.0427
   1541 H          33.6673   12.3954    2.1875 H     193  UNL193      0.0427
   1542 H          31.5805   13.4510    1.2990 H     193  UNL193      0.0241
   1543 H          32.5447   14.6415    2.1864 H     193  UNL193      0.0241
   1544 H          32.5447   14.6415    0.4116 H     193  UNL193      0.0241
   1545 CL         35.2344   13.9142    4.7911 Cl    194  UNL194     -0.1257
   1546 C          33.6918   13.0325    4.7911 C.3   194  UNL194      0.0198
   1547 C          32.5274   14.0003    4.7911 C.3   194  UNL194     -0.0517
   1548 H          33.6673   12.3954    3.9025 H     194  UNL194      0.0427
   1549 H          33.6673   12.3954    5.6796 H     194  UNL194      0.0427
   1550 H          31.5805   13.4510    4.7911 H     194  UNL194      0.0241
   1551 H          32.5447   14.6415    5.6785 H     194  UNL194      0.0241
   1552 H          32.5447   14.6415    3.9037 H     194  UNL194      0.0241
   1553 CL         35.9048   14.3840    8.0836 Cl    195  UNL195     -0.1257
   1554 C          34.3623   13.5023    8.0836 C.3   195  UNL195      0.0198
   1555 C          33.1978   14.4701    8.0836 C.3   195  UNL195     -0.0517
   1556 H          34.3377   12.8652    7.1950 H     195  UNL195      0.0427
   1557 H          34.3377   12.8652    8.9721 H     195  UNL195      0.0427
   1558 H          32.2509   13.9208    8.0836 H     195  UNL195      0.0241
   1559 H          33.2151   15.1113    8.9710 H     195  UNL195      0.0241
   1560 H          33.2151   15.1113    7.1962 H     195  UNL195      0.0241
   1561 CL         36.1989   13.2123   11.5839 Cl    196  UNL196     -0.1257
   1562 C          34.6564   12.3306   11.5839 C.3   196  UNL196      0.0198
   1563 C          33.4919   13.2984   11.5839 C.3   196  UNL196     -0.0517
   1564 H          34.6318   11.6935   10.6953 H     196  UNL196      0.0427
   1565 H          34.6318   11.6935   12.4724 H     196  UNL196      0.0427
   1566 H          32.5450   12.7491   11.5839 H     196  UNL196      0.0241
   1567 H          33.5092   13.9396   12.4713 H     196  UNL196      0.0241
   1568 H          33.5092   13.9396   10.6965 H     196  UNL196      0.0241
   1569 CL         32.3060   19.5265    1.0286 Cl    197  UNL197     -0.1257
   1570 C          33.5582   18.2660    1.0286 C.3   197  UNL197      0.0198
   1571 C          32.9262   16.8901    1.0286 C.3   197  UNL197     -0.0517
   1572 H          34.1798   18.4078    0.1400 H     197  UNL197      0.0427
   1573 H          34.1798   18.4078    1.9171 H     197  UNL197      0.0427
   1574 H          33.7027   16.1184    1.0286 H     197  UNL197      0.0241
   1575 H          32.3025   16.7402    1.9160 H     197  UNL197      0.0241
   1576 H          32.3025   16.7402    0.1412 H     197  UNL197      0.0241
   1577 CL         35.4200   17.5078    4.3203 Cl    198  UNL198     -0.1257
   1578 C          33.8774   16.6261    4.3203 C.3   198  UNL198      0.0198
   1579 C          32.7130   17.5939    4.3203 C.3   198  UNL198     -0.0517
   1580 H          33.8529   15.9890    3.4317 H     198  UNL198      0.0427
   1581 H          33.8529   15.9890    5.2088 H     198  UNL198      0.0427
   1582 H          31.7661   17.0446    4.3203 H     198  UNL198      0.0241
   1583 H          32.7303   18.2351    5.2077 H     198  UNL198      0.0241
   1584 H          32.7303   18.2351    3.4329 H     198  UNL198      0.0241
   1585 CL         34.8070   17.4568    8.5423 Cl    199  UNL199     -0.1257
   1586 C          33.2645   17.6859    7.6909 C.3   199  UNL199      0.0198
   1587 C          32.1000   17.4344    8.6255 C.3   199  UNL199     -0.0517
   1588 H          33.2399   18.7095    7.3065 H     199  UNL199      0.0427
   1589 H          33.2399   16.9934    6.8448 H     199  UNL199      0.0427
   1590 H          31.1531   17.5771    8.0950 H     199  UNL199      0.0241
   1591 H          32.1173   16.4109    9.0141 H     199  UNL199      0.0241
   1592 H          32.1173   18.1247    9.4752 H     199  UNL199      0.0241
   1593 CL         33.4582   21.5574    2.9965 Cl    200  UNL200     -0.1257
   1594 C          31.9156   22.1024    2.3035 C.3   200  UNL200      0.0198
   1595 C          30.7511   21.5041    3.0642 C.3   200  UNL200     -0.0517
   1596 H          31.8910   23.1947    2.3520 H     200  UNL200      0.0427
   1597 H          31.8910   21.7978    1.2534 H     200  UNL200      0.0427
   1598 H          29.8042   21.8437    2.6324 H     200  UNL200      0.0241
   1599 H          30.7684   20.4102    3.0197 H     200  UNL200      0.0241
   1600 H          30.7684   21.8053    4.1168 H     200  UNL200      0.0241
   1601 CL         31.7852   22.9528    6.0979 Cl    201  UNL201     -0.1257
   1602 C          33.2645   21.9689    6.0979 C.3   201  UNL201      0.0198
   1603 C          32.9211   20.4942    6.0979 C.3   201  UNL201     -0.0517
   1604 H          33.8451   22.2323    5.2093 H     201  UNL201      0.0427
   1605 H          33.8451   22.2323    6.9864 H     201  UNL201      0.0427
   1606 H          33.8365   19.8938    6.0979 H     201  UNL201      0.0241
   1607 H          32.3401   20.2223    6.9853 H     201  UNL201      0.0241
   1608 H          32.3401   20.2223    5.2105 H     201  UNL201      0.0241
   1609 CL         33.3480   21.4726    9.4784 Cl    202  UNL202     -0.1257
   1610 C          31.8055   20.5909    9.4784 C.3   202  UNL202      0.0198
   1611 C          30.6410   21.5587    9.4784 C.3   202  UNL202     -0.0517
   1612 H          31.7809   19.9538    8.5898 H     202  UNL202      0.0427
   1613 H          31.7809   19.9538   10.3669 H     202  UNL202      0.0427
   1614 H          29.6941   21.0094    9.4784 H     202  UNL202      0.0241
   1615 H          30.6583   22.1999   10.3658 H     202  UNL202      0.0241
   1616 H          30.6583   22.1999    8.5910 H     202  UNL202      0.0241
   1617 CL         35.2344   25.6695    1.3932 Cl    203  UNL203     -0.1257
   1618 C          33.6918   24.7878    1.3932 C.3   203  UNL203      0.0198
   1619 C          32.5274   25.7556    1.3932 C.3   203  UNL203     -0.0517
   1620 H          33.6673   24.1507    0.5046 H     203  UNL203      0.0427
   1621 H          33.6673   24.1507    2.2817 H     203  UNL203      0.0427
   1622 H          31.5805   25.2063    1.3932 H     203  UNL203      0.0241
   1623 H          32.5447   26.3968    2.2806 H     203  UNL203      0.0241
   1624 H          32.5447   26.3968    0.5058 H     203  UNL203      0.0241
   1625 CL         35.2344   25.2518    4.7420 Cl    204  UNL204     -0.1257
   1626 C          33.6918   24.3701    4.7420 C.3   204  UNL204      0.0198
   1627 C          32.5274   25.3379    4.7420 C.3   204  UNL204     -0.0517
   1628 H          33.6673   23.7330    3.8534 H     204  UNL204      0.0427
   1629 H          33.6673   23.7330    5.6305 H     204  UNL204      0.0427
   1630 H          31.5805   24.7886    4.7420 H     204  UNL204      0.0241
   1631 H          32.5447   25.9791    5.6294 H     204  UNL204      0.0241
   1632 H          32.5447   25.9791    3.8546 H     204  UNL204      0.0241
   1633 CL         35.3944   25.6383    8.1860 Cl    205  UNL205     -0.1257
   1634 C          33.8518   24.7566    8.1860 C.3   205  UNL205      0.0198
   1635 C          32.6874   25.7244    8.1860 C.3   205  UNL205     -0.0517
   1636 H          33.8273   24.1195    7.2974 H     205  UNL205      0.0427
   1637 H          33.8273   24.1195    9.0745 H     205  UNL205      0.0427
   1638 H          31.7404   25.1751    8.1860 H     205  UNL205      0.0241
   1639 H          32.7047   26.3656    9.0734 H     205  UNL205      0.0241
   1640 H          32.7047   26.3656    7.2986 H     205  UNL205      0.0241
   1641 CL         35.2344   25.2518   11.7501 Cl    206  UNL206     -0.1257
   1642 C          33.6918   24.3701   11.7501 C.3   206  UNL206      0.0198
   1643 C          32.5274   25.3379   11.7501 C.3   206  UNL206     -0.0517
   1644 H          33.6673   23.7330   10.8615 H     206  UNL206      0.0427
   1645 H          33.6673   23.7330   12.6386 H     206  UNL206      0.0427
   1646 H          31.5805   24.7886   11.7501 H     206  UNL206      0.0241
   1647 H          32.5447   25.9791   12.6375 H     206  UNL206      0.0241
   1648 H          32.5447   25.9791   10.8627 H     206  UNL206      0.0241
   1649 CL         35.2344   29.0310    1.0860 Cl    207  UNL207     -0.1257
   1650 C          33.6918   28.1493    1.0860 C.3   207  UNL207      0.0198
   1651 C          32.5274   29.1171    1.0860 C.3   207  UNL207     -0.0517
   1652 H          33.6673   27.5122    0.1974 H     207  UNL207      0.0427
   1653 H          33.6673   27.5122    1.9745 H     207  UNL207      0.0427
   1654 H          31.5805   28.5678    1.0860 H     207  UNL207      0.0241
   1655 H          32.5447   29.7583    1.9734 H     207  UNL207      0.0241
   1656 H          32.5447   29.7583    0.1986 H     207  UNL207      0.0241
   1657 CL         35.4269   28.6905    4.5843 Cl    208  UNL208     -0.1257
   1658 C          33.8844   27.8088    4.5843 C.3   208  UNL208      0.0198
   1659 C          32.7199   28.7766    4.5843 C.3   208  UNL208     -0.0517
   1660 H          33.8598   27.1717    3.6957 H     208  UNL208      0.0427
   1661 H          33.8598   27.1717    5.4728 H     208  UNL208      0.0427
   1662 H          31.7730   28.2273    4.5843 H     208  UNL208      0.0241
   1663 H          32.7372   29.4178    5.4717 H     208  UNL208      0.0241
   1664 H          32.7372   29.4178    3.6969 H     208  UNL208      0.0241
   1665 CL         35.0664   29.3510    7.9945 Cl    209  UNL209     -0.1257
   1666 C          33.5239   28.4692    7.9945 C.3   209  UNL209      0.0198
   1667 C          32.3594   29.4371    7.9945 C.3   209  UNL209     -0.0517
   1668 H          33.4993   27.8322    7.1059 H     209  UNL209      0.0427
   1669 H          33.4993   27.8322    8.8830 H     209  UNL209      0.0427
   1670 H          31.4125   28.8878    7.9945 H     209  UNL209      0.0241
   1671 H          32.3767   30.0783    8.8819 H     209  UNL209      0.0241
   1672 H          32.3767   30.0783    7.1071 H     209  UNL209      0.0241
   1673 CL         35.2344   29.0350   11.5798 Cl    210  UNL210     -0.1257
   1674 C          33.6918   28.1533   11.5798 C.3   210  UNL210      0.0198
   1675 C          32.5274   29.1211   11.5798 C.3   210  UNL210     -0.0517
   1676 H          33.6673   27.5162   10.6912 H     210  UNL210      0.0427
   1677 H          33.6673   27.5162   12.4683 H     210  UNL210      0.0427
   1678 H          31.5805   28.5718   11.5798 H     210  UNL210      0.0241
   1679 H          32.5447   29.7623   12.4672 H     210  UNL210      0.0241
   1680 H          32.5447   29.7623   10.6924 H     210  UNL210      0.0241
   1681 CL         38.9081   21.4726    6.0979 Cl    211  UNL211     -0.1257
   1682 C          37.3656   20.5909    6.0979 C.3   211  UNL211      0.0198
   1683 C          36.2011   21.5587    6.0979 C.3   211  UNL211     -0.0517
   1684 H          37.3410   19.9538    5.2093 H     211  UNL211      0.0427
   1685 H          37.3410   19.9538    6.9864 H     211  UNL211      0.0427
   1686 H          35.2542   21.0094    6.0979 H     211  UNL211      0.0241
   1687 H          36.2184   22.1999    6.9853 H     211  UNL211      0.0241
   1688 H          36.2184   22.1999    5.2105 H     211  UNL211      0.0241
@<TRIPOS>BOND
     1     1     2    1
     2     2     3    1
     3     2     4    1
     4     2     5    1
     5     3     6    1
     6     3     7    1
     7     3     8    1
     8     9    10    1
     9    10    11    1
    10    10    12    1
    11    10    13    1
    12    11    14    1
    13    11    15    1
    14    11    16    1
    15    17    18    1
    16    18    19    1
    17    18    20    1
    18    18    21    1
    19    19    22    1
    20    19    23    1
    21    19    24    1
    22    25    26    1
    23    26    27    1
    24    26    28    1
    25    26    29    1
    26    27    30    1
    27    27    31    1
    28    27    32    1
    29    33    34    1
    30    34    35    1
    31    34    36    1
    32    34    37    1
    33    35    38    1
    34    35    39    1
    35    35    40    1
    36    41    42    1
    37    42    43    1
    38    42    44    1
    39    42    45    1
    40    43    46    1
    41    43    47    1
    42    43    48    1
    43    49    50    1
    44    50    51    1
    45    50    52    1
    46    50    53    1
    47    51    54    1
    48    51    55    1
    49    51    56    1
    50    57    58    1
    51    58    59    1
    52    58    60    1
    53    58    61    1
    54    59    62    1
    55    59    63    1
    56    59    64    1
    57    65    66    1
    58    66    67    1
    59    66    68    1
    60    66    69    1
    61    67    70    1
    62    67    71    1
    63    67    72    1
    64    73    74    1
    65    74    75    1
    66    74    76    1
    67    74    77    1
    68    75    78    1
    69    75    79    1
    70    75    80    1
    71    81    82    1
    72    82    83    1
    73    82    84    1
    74    82    85    1
    75    83    86    1
    76    83    87    1
    77    83    88    1
    78    89    90    1
    79    90    91    1
    80    90    92    1
    81    90    93    1
    82    91    94    1
    83    91    95    1
    84    91    96    1
    85    97    98    1
    86    98    99    1
    87    98   100    1
    88    98   101    1
    89    99   102    1
    90    99   103    1
    91    99   104    1
    92   105   106    1
    93   106   107    1
    94   106   108    1
    95   106   109    1
    96   107   110    1
    97   107   111    1
    98   107   112    1
    99   113   114    1
   100   114   115    1
   101   114   116    1
   102   114   117    1
   103   115   118    1
   104   115   119    1
   105   115   120    1
   106   121   122    1
   107   122   123    1
   108   122   124    1
   109   122   125    1
   110   123   126    1
   111   123   127    1
   112   123   128    1
   113   129   130    1
   114   130   131    1
   115   130   132    1
   116   130   133    1
   117   131   134    1
   118   131   135    1
   119   131   136    1
   120   137   138    1
   121   138   139    1
   122   138   140    1
   123   138   141    1
   124   139   142    1
   125   139   143    1
   126   139   144    1
   127   145   146    1
   128   146   147    1
   129   146   148    1
   130   146   149    1
   131   147   150    1
   132   147   151    1
   133   147   152    1
   134   153   154    1
   135   154   155    1
   136   154   156    1
   137   154   157    1
   138   155   158    1
   139   155   159    1
   140   155   160    1
   141   161   162    1
   142   162   163    1
   143   162   164    1
   144   162   165    1
   145   163   166    1
   146   163   167    1
   147   163   168    1
   148   169   170    1
   149   170   171    1
   150   170   172    1
   151   170   173    1
   152   171   174    1
   153   171   175    1
   154   171   176    1
   155   177   178    1
   156   178   179    1
   157   178   180    1
   158   178   181    1
   159   179   182    1
   160   179   183    1
   161   179   184    1
   162   185   186    1
   163   186   187    1
   164   186   188    1
   165   186   189    1
   166   187   190    1
   167   187   191    1
   168   187   192    1
   169   193   194    1
   170   194   195    1
   171   194   196    1
   172   194   197    1
   173   195   198    1
   174   195   199    1
   175   195   200    1
   176   201   202    1
   177   202   203    1
   178   202   204    1
   179   202   205    1
   180   203   206    1
   181   203   207    1
   182   203   208    1
   183   209   210    1
   184   210   211    1
   185   210   212    1
   186   210   213    1
   187   211   214    1
   188   211   215    1
   189   211   216    1
   190   217   218    1
   191   218   219    1
   192   218   220    1
   193   218   221    1
   194   219   222    1
   195   219   223    1
   196   219   224    1
   197   225   226    1
   198   226   227    1
   199   226   228    1
   200   226   229    1
   201   227   230    1
   202   227   231    1
   203   227   232    1
   204   233   234    1
   205   234   235    1
   206   234   236    1
   207   234   237    1
   208   235   238    1
   209   235   239    1
   210   235   240    1
   211   241   242    1
   212   242   243    1
   213   242   244    1
   214   242   245    1
   215   243   246    1
   216   243   247    1
   217   243   248    1
   218   249   250    1
   219   250   251    1
   220   250   252    1
   221   250   253    1
   222   251   254    1
   223   251   255    1
   224   251   256    1
   225   257   258    1
   226   258   259    1
   227   258   260    1
   228   258   261    1
   229   259   262    1
   230   259   263    1
   231   259   264    1
   232   265   266    1
   233   266   267    1
   234   266   268    1
   235   266   269    1
   236   267   270    1
   237   267   271    1
   238   267   272    1
   239   273   274    1
   240   274   275    1
   241   274   276    1
   242   274   277    1
   243   275   278    1
   244   275   279    1
   245   275   280    1
   246   281   282    1
   247   282   283    1
   248   282   284    1
   249   282   285    1
   250   283   286    1
   251   283   287    1
   252   283   288    1
   253   289   290    1
   254   290   291    1
   255   290   292    1
   256   290   293    1
   257   291   294    1
   258   291   295    1
   259   291   296    1
   260   297   298    1
   261   298   299    1
   262   298   300    1
   263   298   301    1
   264   299   302    1
   265   299   303    1
   266   299   304    1
   267   305   306    1
   268   306   307    1
   269   306   308    1
   270   306   309    1
   271   307   310    1
   272   307   311    1
   273   307   312    1
   274   313   314    1
   275   314   315    1
   276   314   316    1
   277   314   317    1
   278   315   318    1
   279   315   319    1
   280   315   320    1
   281   321   322    1
   282   322   323    1
   283   322   324    1
   284   322   325    1
   285   323   326    1
   286   323   327    1
   287   323   328    1
   288   329   330    1
   289   330   331    1
   290   330   332    1
   291   330   333    1
   292   331   334    1
   293   331   335    1
   294   331   336    1
   295   337   338    1
   296   338   339    1
   297   338   340    1
   298   338   341    1
   299   339   342    1
   300   339   343    1
   301   339   344    1
   302   345   346    1
   303   346   347    1
   304   346   348    1
   305   346   349    1
   306   347   350    1
   307   347   351    1
   308   347   352    1
   309   353   354    1
   310   354   355    1
   311   354   356    1
   312   354   357    1
   313   355   358    1
   314   355   359    1
   315   355   360    1
   316   361   362    1
   317   362   363    1
   318   362   364    1
   319   362   365    1
   320   363   366    1
   321   363   367    1
   322   363   368    1
   323   369   370    1
   324   370   371    1
   325   370   372    1
   326   370   373    1
   327   371   374    1
   328   371   375    1
   329   371   376    1
   330   377   378    1
   331   378   379    1
   332   378   380    1
   333   378   381    1
   334   379   382    1
   335   379   383    1
   336   379   384    1
   337   385   386    1
   338   386   387    1
   339   386   388    1
   340   386   389    1
   341   387   390    1
   342   387   391    1
   343   387   392    1
   344   393   394    1
   345   394   395    1
   346   394   396    1
   347   394   397    1
   348   395   398    1
   349   395   399    1
   350   395   400    1
   351   401   402    1
   352   402   403    1
   353   402   404    1
   354   402   405    1
   355   403   406    1
   356   403   407    1
   357   403   408    1
   358   409   410    1
   359   410   411    1
   360   410   412    1
   361   410   413    1
   362   411   414    1
   363   411   415    1
   364   411   416    1
   365   417   418    1
   366   418   419    1
   367   418   420    1
   368   418   421    1
   369   419   422    1
   370   419   423    1
   371   419   424    1
   372   425   426    1
   373   426   427    1
   374   426   428    1
   375   426   429    1
   376   427   430    1
   377   427   431    1
   378   427   432    1
   379   433   434    1
   380   434   435    1
   381   434   436    1
   382   434   437    1
   383   435   438    1
   384   435   439    1
   385   435   440    1
   386   441   442    1
   387   442   443    1
   388   442   444    1
   389   442   445    1
   390   443   446    1
   391   443   447    1
   392   443   448    1
   393   449   450    1
   394   450   451    1
   395   450   452    1
   396   450   453    1
   397   451   454    1
   398   451   455    1
   399   451   456    1
   400   457   458    1
   401   458   459    1
   402   458   460    1
   403   458   461    1
   404   459   462    1
   405   459   463    1
   406   459   464    1
   407   465   466    1
   408   466   467    1
   409   466   468    1
   410   466   469    1
   411   467   470    1
   412   467   471    1
   413   467   472    1
   414   473   474    1
   415   474   475    1
   416   474   476    1
   417   474   477    1
   418   475   478    1
   419   475   479    1
   420   475   480    1
   421   481   482    1
   422   482   483    1
   423   482   484    1
   424   482   485    1
   425   483   486    1
   426   483   487    1
   427   483   488    1
   428   489   490    1
   429   490   491    1
   430   490   492    1
   431   490   493    1
   432   491   494    1
   433   491   495    1
   434   491   496    1
   435   497   498    1
   436   498   499    1
   437   498   500    1
   438   498   501    1
   439   499   502    1
   440   499   503    1
   441   499   504    1
   442   505   506    1
   443   506   507    1
   444   506   508    1
   445   506   509    1
   446   507   510    1
   447   507   511    1
   448   507   512    1
   449   513   514    1
   450   514   515    1
   451   514   516    1
   452   514   517    1
   453   515   518    1
   454   515   519    1
   455   515   520    1
   456   521   522    1
   457   522   523    1
   458   522   524    1
   459   522   525    1
   460   523   526    1
   461   523   527    1
   462   523   528    1
   463   529   530    1
   464   530   531    1
   465   530   532    1
   466   530   533    1
   467   531   534    1
   468   531   535    1
   469   531   536    1
   470   537   538    1
   471   538   539    1
   472   538   540    1
   473   538   541    1
   474   539   542    1
   475   539   543    1
   476   539   544    1
   477   545   546    1
   478   546   547    1
   479   546   548    1
   480   546   549    1
   481   547   550    1
   482   547   551    1
   483   547   552    1
   484   553   554    1
   485   554   555    1
   486   554   556    1
   487   554   557    1
   488   555   558    1
   489   555   559    1
   490   555   560    1
   491   561   562    1
   492   562   563    1
   493   562   564    1
   494   562   565    1
   495   563   566    1
   496   563   567    1
   497   563   568    1
   498   569   570    1
   499   570   571    1
   500   570   572    1
   501   570   573    1
   502   571   574    1
   503   571   575    1
   504   571   576    1
   505   577   578    1
   506   578   579    1
   507   578   580    1
   508   578   581    1
   509   579   582    1
   510   579   583    1
   511   579   584    1
   512   585   586    1
   513   586   587    1
   514   586   588    1
   515   586   589    1
   516   587   590    1
   517   587   591    1
   518   587   592    1
   519   593   594    1
   520   594   595    1
   521   594   596    1
   522   594   597    1
   523   595   598    1
   524   595   599    1
   525   595   600    1
   526   601   602    1
   527   602   603    1
   528   602   604    1
   529   602   605    1
   530   603   606    1
   531   603   607    1
   532   603   608    1
   533   609   610    1
   534   610   611    1
   535   610   612    1
   536   610   613    1
   537   611   614    1
   538   611   615    1
   539   611   616    1
   540   617   618    1
   541   618   619    1
   542   618   620    1
   543   618   621    1
   544   619   622    1
   545   619   623    1
   546   619   624    1
   547   625   626    1
   548   626   627    1
   549   626   628    1
   550   626   629    1
   551   627   630    1
   552   627   631    1
   553   627   632    1
   554   633   634    1
   555   634   635    1
   556   634   636    1
   557   634   637    1
   558   635   638    1
   559   635   639    1
   560   635   640    1
   561   641   642    1
   562   642   643    1
   563   642   644    1
   564   642   645    1
   565   643   646    1
   566   643   647    1
   567   643   648    1
   568   649   650    1
   569   650   651    1
   570   650   652    1
   571   650   653    1
   572   651   654    1
   573   651   655    1
   574   651   656    1
   575   657   658    1
   576   658   659    1
   577   658   660    1
   578   658   661    1
   579   659   662    1
   580   659   663    1
   581   659   664    1
   582   665   666    1
   583   666   667    1
   584   666   668    1
   585   666   669    1
   586   667   670    1
   587   667   671    1
   588   667   672    1
   589   673   674    1
   590   674   675    1
   591   674   676    1
   592   674   677    1
   593   675   678    1
   594   675   679    1
   595   675   680    1
   596   681   682    1
   597   682   683    1
   598   682   684    1
   599   682   685    1
   600   683   686    1
   601   683   687    1
   602   683   688    1
   603   689   690    1
   604   690   691    1
   605   690   692    1
   606   690   693    1
   607   691   694    1
   608   691   695    1
   609   691   696    1
   610   697   698    1
   611   698   699    1
   612   698   700    1
   613   698   701    1
   614   699   702    1
   615   699   703    1
   616   699   704    1
   617   705   706    1
   618   706   707    1
   619   706   708    1
   620   706   709    1
   621   707   710    1
   622   707   711    1
   623   707   712    1
   624   713   714    1
   625   714   715    1
   626   714   716    1
   627   714   717    1
   628   715   718    1
   629   715   719    1
   630   715   720    1
   631   721   722    1
   632   722   723    1
   633   722   724    1
   634   722   725    1
   635   723   726    1
   636   723   727    1
   637   723   728    1
   638   729   730    1
   639   730   731    1
   640   730   732    1
   641   730   733    1
   642   731   734    1
   643   731   735    1
   644   731   736    1
   645   737   738    1
   646   738   739    1
   647   738   740    1
   648   738   741    1
   649   739   742    1
   650   739   743    1
   651   739   744    1
   652   745   746    1
   653   746   747    1
   654   746   748    1
   655   746   749    1
   656   747   750    1
   657   747   751    1
   658   747   752    1
   659   753   754    1
   660   754   755    1
   661   754   756    1
   662   754   757    1
   663   755   758    1
   664   755   759    1
   665   755   760    1
   666   761   762    1
   667   762   763    1
   668   762   764    1
   669   762   765    1
   670   763   766    1
   671   763   767    1
   672   763   768    1
   673   769   770    1
   674   770   771    1
   675   770   772    1
   676   770   773    1
   677   771   774    1
   678   771   775    1
   679   771   776    1
   680   777   778    1
   681   778   779    1
   682   778   780    1
   683   778   781    1
   684   779   782    1
   685   779   783    1
   686   779   784    1
   687   785   786    1
   688   786   787    1
   689   786   788    1
   690   786   789    1
   691   787   790    1
   692   787   791    1
   693   787   792    1
   694   793   794    1
   695   794   795    1
   696   794   796    1
   697   794   797    1
   698   795   798    1
   699   795   799    1
   700   795   800    1
   701   801   802    1
   702   802   803    1
   703   802   804    1
   704   802   805    1
   705   803   806    1
   706   803   807    1
   707   803   808    1
   708   809   810    1
   709   810   811    1
   710   810   812    1
   711   810   813    1
   712   811   814    1
   713   811   815    1
   714   811   816    1
   715   817   818    1
   716   818   819    1
   717   818   820    1
   718   818   821    1
   719   819   822    1
   720   819   823    1
   721   819   824    1
   722   825   826    1
   723   826   827    1
   724   826   828    1
   725   826   829    1
   726   827   830    1
   727   827   831    1
   728   827   832    1
   729   833   834    1
   730   834   835    1
   731   834   836    1
   732   834   837    1
   733   835   838    1
   734   835   839    1
   735   835   840    1
   736   841   842    1
   737   842   843    1
   738   842   844    1
   739   842   845    1
   740   843   846    1
   741   843   847    1
   742   843   848    1
   743   849   850    1
   744   850   851    1
   745   850   852    1
   746   850   853    1
   747   851   854    1
   748   851   855    1
   749   851   856    1
   750   857   858    1
   751   858   859    1
   752   858   860    1
   753   858   861    1
   754   859   862    1
   755   859   863    1
   756   859   864    1
   757   865   866    1
   758   866   867    1
   759   866   868    1
   760   866   869    1
   761   867   870    1
   762   867   871    1
   763   867   872    1
   764   873   874    1
   765   874   875    1
   766   874   876    1
   767   874   877    1
   768   875   878    1
   769   875   879    1
   770   875   880    1
   771   881   882    1
   772   882   883    1
   773   882   884    1
   774   882   885    1
   775   883   886    1
   776   883   887    1
   777   883   888    1
   778   889   890    1
   779   890   891    1
   780   890   892    1
   781   890   893    1
   782   891   894    1
   783   891   895    1
   784   891   896    1
   785   897   898    1
   786   898   899    1
   787   898   900    1
   788   898   901    1
   789   899   902    1
   790   899   903    1
   791   899   904    1
   792   905   906    1
   793   906   907    1
   794   906   908    1
   795   906   909    1
   796   907   910    1
   797   907   911    1
   798   907   912    1
   799   913   914    1
   800   914   915    1
   801   914   916    1
   802   914   917    1
   803   915   918    1
   804   915   919    1
   805   915   920    1
   806   921   922    1
   807   922   923    1
   808   922   924    1
   809   922   925    1
   810   923   926    1
   811   923   927    1
   812   923   928    1
   813   929   930    1
   814   930   931    1
   815   930   932    1
   816   930   933    1
   817   931   934    1
   818   931   935    1
   819   931   936    1
   820   937   938    1
   821   938   939    1
   822   938   940    1
   823   938   941    1
   824   939   942    1
   825   939   943    1
   826   939   944    1
   827   945   946    1
   828   946   947    1
   829   946   948    1
   830   946   949    1
   831   947   950    1
   832   947   951    1
   833   947   952    1
   834   953   954    1
   835   954   955    1
   836   954   956    1
   837   954   957    1
   838   955   958    1
   839   955   959    1
   840   955   960    1
   841   961   962    1
   842   962   963    1
   843   962   964    1
   844   962   965    1
   845   963   966    1
   846   963   967    1
   847   963   968    1
   848   969   970    1
   849   970   971    1
   850   970   972    1
   851   970   973    1
   852   971   974    1
   853   971   975    1
   854   971   976    1
   855   977   978    1
   856   978   979    1
   857   978   980    1
   858   978   981    1
   859   979   982    1
   860   979   983    1
   861   979   984    1
   862   985   986    1
   863   986   987    1
   864   986   988    1
   865   986   989    1
   866   987   990    1
   867   987   991    1
   868   987   992    1
   869   993   994    1
   870   994   995    1
   871   994   996    1
   872   994   997    1
   873   995   998    1
   874   995   999    1
   875   995  1000    1
   876  1001  1002    1
   877  1002  1003    1
   878  1002  1004    1
   879  1002  1005    1
   880  1003  1006    1
   881  1003  1007    1
   882  1003  1008    1
   883  1009  1010    1
   884  1010  1011    1
   885  1010  1012    1
   886  1010  1013    1
   887  1011  1014    1
   888  1011  1015    1
   889  1011  1016    1
   890  1017  1018    1
   891  1018  1019    1
   892  1018  1020    1
   893  1018  1021    1
   894  1019  1022    1
   895  1019  1023    1
   896  1019  1024    1
   897  1025  1026    1
   898  1026  1027    1
   899  1026  1028    1
   900  1026  1029    1
   901  1027  1030    1
   902  1027  1031    1
   903  1027  1032    1
   904  1033  1034    1
   905  1034  1035    1
   906  1034  1036    1
   907  1034  1037    1
   908  1035  1038    1
   909  1035  1039    1
   910  1035  1040    1
   911  1041  1042    1
   912  1042  1043    1
   913  1042  1044    1
   914  1042  1045    1
   915  1043  1046    1
   916  1043  1047    1
   917  1043  1048    1
   918  1049  1050    1
   919  1050  1051    1
   920  1050  1052    1
   921  1050  1053    1
   922  1051  1054    1
   923  1051  1055    1
   924  1051  1056    1
   925  1057  1058    1
   926  1058  1059    1
   927  1058  1060    1
   928  1058  1061    1
   929  1059  1062    1
   930  1059  1063    1
   931  1059  1064    1
   932  1065  1066    1
   933  1066  1067    1
   934  1066  1068    1
   935  1066  1069    1
   936  1067  1070    1
   937  1067  1071    1
   938  1067  1072    1
   939  1073  1074    1
   940  1074  1075    1
   941  1074  1076    1
   942  1074  1077    1
   943  1075  1078    1
   944  1075  1079    1
   945  1075  1080    1
   946  1081  1082    1
   947  1082  1083    1
   948  1082  1084    1
   949  1082  1085    1
   950  1083  1086    1
   951  1083  1087    1
   952  1083  1088    1
   953  1089  1090    1
   954  1090  1091    1
   955  1090  1092    1
   956  1090  1093    1
   957  1091  1094    1
   958  1091  1095    1
   959  1091  1096    1
   960  1097  1098    1
   961  1098  1099    1
   962  1098  1100    1
   963  1098  1101    1
   964  1099  1102    1
   965  1099  1103    1
   966  1099  1104    1
   967  1105  1106    1
   968  1106  1107    1
   969  1106  1108    1
   970  1106  1109    1
   971  1107  1110    1
   972  1107  1111    1
   973  1107  1112    1
   974  1113  1114    1
   975  1114  1115    1
   976  1114  1116    1
   977  1114  1117    1
   978  1115  1118    1
   979  1115  1119    1
   980  1115  1120    1
   981  1121  1122    1
   982  1122  1123    1
   983  1122  1124    1
   984  1122  1125    1
   985  1123  1126    1
   986  1123  1127    1
   987  1123  1128    1
   988  1129  1130    1
   989  1130  1131    1
   990  1130  1132    1
   991  1130  1133    1
   992  1131  1134    1
   993  1131  1135    1
   994  1131  1136    1
   995  1137  1138    1
   996  1138  1139    1
   997  1138  1140    1
   998  1138  1141    1
   999  1139  1142    1
  1000  1139  1143    1
  1001  1139  1144    1
  1002  1145  1146    1
  1003  1146  1147    1
  1004  1146  1148    1
  1005  1146  1149    1
  1006  1147  1150    1
  1007  1147  1151    1
  1008  1147  1152    1
  1009  1153  1154    1
  1010  1154  1155    1
  1011  1154  1156    1
  1012  1154  1157    1
  1013  1155  1158    1
  1014  1155  1159    1
  1015  1155  1160    1
  1016  1161  1162    1
  1017  1162  1163    1
  1018  1162  1164    1
  1019  1162  1165    1
  1020  1163  1166    1
  1021  1163  1167    1
  1022  1163  1168    1
  1023  1169  1170    1
  1024  1170  1171    1
  1025  1170  1172    1
  1026  1170  1173    1
  1027  1171  1174    1
  1028  1171  1175    1
  1029  1171  1176    1
  1030  1177  1178    1
  1031  1178  1179    1
  1032  1178  1180    1
  1033  1178  1181    1
  1034  1179  1182    1
  1035  1179  1183    1
  1036  1179  1184    1
  1037  1185  1186    1
  1038  1186  1187    1
  1039  1186  1188    1
  1040  1186  1189    1
  1041  1187  1190    1
  1042  1187  1191    1
  1043  1187  1192    1
  1044  1193  1194    1
  1045  1194  1195    1
  1046  1194  1196    1
  1047  1194  1197    1
  1048  1195  1198    1
  1049  1195  1199    1
  1050  1195  1200    1
  1051  1201  1202    1
  1052  1202  1203    1
  1053  1202  1204    1
  1054  1202  1205    1
  1055  1203  1206    1
  1056  1203  1207    1
  1057  1203  1208    1
  1058  1209  1210    1
  1059  1210  1211    1
  1060  1210  1212    1
  1061  1210  1213    1
  1062  1211  1214    1
  1063  1211  1215    1
  1064  1211  1216    1
  1065  1217  1218    1
  1066  1218  1219    1
  1067  1218  1220    1
  1068  1218  1221    1
  1069  1219  1222    1
  1070  1219  1223    1
  1071  1219  1224    1
  1072  1225  1226    1
  1073  1226  1227    1
  1074  1226  1228    1
  1075  1226  1229    1
  1076  1227  1230    1
  1077  1227  1231    1
  1078  1227  1232    1
  1079  1233  1234    1
  1080  1234  1235    1
  1081  1234  1236    1
  1082  1234  1237    1
  1083  1235  1238    1
  1084  1235  1239    1
  1085  1235  1240    1
  1086  1241  1242    1
  1087  1242  1243    1
  1088  1242  1244    1
  1089  1242  1245    1
  1090  1243  1246    1
  1091  1243  1247    1
  1092  1243  1248    1
  1093  1249  1250    1
  1094  1250  1251    1
  1095  1250  1252    1
  1096  1250  1253    1
  1097  1251  1254    1
  1098  1251  1255    1
  1099  1251  1256    1
  1100  1257  1258    1
  1101  1258  1259    1
  1102  1258  1260    1
  1103  1258  1261    1
  1104  1259  1262    1
  1105  1259  1263    1
  1106  1259  1264    1
  1107  1265  1266    1
  1108  1266  1267    1
  1109  1266  1268    1
  1110  1266  1269    1
  1111  1267  1270    1
  1112  1267  1271    1
  1113  1267  1272    1
  1114  1273  1274    1
  1115  1274  1275    1
  1116  1274  1276    1
  1117  1274  1277    1
  1118  1275  1278    1
  1119  1275  1279    1
  1120  1275  1280    1
  1121  1281  1282    1
  1122  1282  1283    1
  1123  1282  1284    1
  1124  1282  1285    1
  1125  1283  1286    1
  1126  1283  1287    1
  1127  1283  1288    1
  1128  1289  1290    1
  1129  1290  1291    1
  1130  1290  1292    1
  1131  1290  1293    1
  1132  1291  1294    1
  1133  1291  1295    1
  1134  1291  1296    1
  1135  1297  1298    1
  1136  1298  1299    1
  1137  1298  1300    1
  1138  1298  1301    1
  1139  1299  1302    1
  1140  1299  1303    1
  1141  1299  1304    1
  1142  1305  1306    1
  1143  1306  1307    1
  1144  1306  1308    1
  1145  1306  1309    1
  1146  1307  1310    1
  1147  1307  1311    1
  1148  1307  1312    1
  1149  1313  1314    1
  1150  1314  1315    1
  1151  1314  1316    1
  1152  1314  1317    1
  1153  1315  1318    1
  1154  1315  1319    1
  1155  1315  1320    1
  1156  1321  1322    1
  1157  1322  1323    1
  1158  1322  1324    1
  1159  1322  1325    1
  1160  1323  1326    1
  1161  1323  1327    1
  1162  1323  1328    1
  1163  1329  1330    1
  1164  1330  1331    1
  1165  1330  1332    1
  1166  1330  1333    1
  1167  1331  1334    1
  1168  1331  1335    1
  1169  1331  1336    1
  1170  1337  1338    1
  1171  1338  1339    1
  1172  1338  1340    1
  1173  1338  1341    1
  1174  1339  1342    1
  1175  1339  1343    1
  1176  1339  1344    1
  1177  1345  1346    1
  1178  1346  1347    1
  1179  1346  1348    1
  1180  1346  1349    1
  1181  1347  1350    1
  1182  1347  1351    1
  1183  1347  1352    1
  1184  1353  1354    1
  1185  1354  1355    1
  1186  1354  1356    1
  1187  1354  1357    1
  1188  1355  1358    1
  1189  1355  1359    1
  1190  1355  1360    1
  1191  1361  1362    1
  1192  1362  1363    1
  1193  1362  1364    1
  1194  1362  1365    1
  1195  1363  1366    1
  1196  1363  1367    1
  1197  1363  1368    1
  1198  1369  1370    1
  1199  1370  1371    1
  1200  1370  1372    1
  1201  1370  1373    1
  1202  1371  1374    1
  1203  1371  1375    1
  1204  1371  1376    1
  1205  1377  1378    1
  1206  1378  1379    1
  1207  1378  1380    1
  1208  1378  1381    1
  1209  1379  1382    1
  1210  1379  1383    1
  1211  1379  1384    1
  1212  1385  1386    1
  1213  1386  1387    1
  1214  1386  1388    1
  1215  1386  1389    1
  1216  1387  1390    1
  1217  1387  1391    1
  1218  1387  1392    1
  1219  1393  1394    1
  1220  1394  1395    1
  1221  1394  1396    1
  1222  1394  1397    1
  1223  1395  1398    1
  1224  1395  1399    1
  1225  1395  1400    1
  1226  1401  1402    1
  1227  1402  1403    1
  1228  1402  1404    1
  1229  1402  1405    1
  1230  1403  1406    1
  1231  1403  1407    1
  1232  1403  1408    1
  1233  1409  1410    1
  1234  1410  1411    1
  1235  1410  1412    1
  1236  1410  1413    1
  1237  1411  1414    1
  1238  1411  1415    1
  1239  1411  1416    1
  1240  1417  1418    1
  1241  1418  1419    1
  1242  1418  1420    1
  1243  1418  1421    1
  1244  1419  1422    1
  1245  1419  1423    1
  1246  1419  1424    1
  1247  1425  1426    1
  1248  1426  1427    1
  1249  1426  1428    1
  1250  1426  1429    1
  1251  1427  1430    1
  1252  1427  1431    1
  1253  1427  1432    1
  1254  1433  1434    1
  1255  1434  1435    1
  1256  1434  1436    1
  1257  1434  1437    1
  1258  1435  1438    1
  1259  1435  1439    1
  1260  1435  1440    1
  1261  1441  1442    1
  1262  1442  1443    1
  1263  1442  1444    1
  1264  1442  1445    1
  1265  1443  1446    1
  1266  1443  1447    1
  1267  1443  1448    1
  1268  1449  1450    1
  1269  1450  1451    1
  1270  1450  1452    1
  1271  1450  1453    1
  1272  1451  1454    1
  1273  1451  1455    1
  1274  1451  1456    1
  1275  1457  1458    1
  1276  1458  1459    1
  1277  1458  1460    1
  1278  1458  1461    1
  1279  1459  1462    1
  1280  1459  1463    1
  1281  1459  1464    1
  1282  1465  1466    1
  1283  1466  1467    1
  1284  1466  1468    1
  1285  1466  1469    1
  1286  1467  1470    1
  1287  1467  1471    1
  1288  1467  1472    1
  1289  1473  1474    1
  1290  1474  1475    1
  1291  1474  1476    1
  1292  1474  1477    1
  1293  1475  1478    1
  1294  1475  1479    1
  1295  1475  1480    1
  1296  1481  1482    1
  1297  1482  1483    1
  1298  1482  1484    1
  1299  1482  1485    1
  1300  1483  1486    1
  1301  1483  1487    1
  1302  1483  1488    1
  1303  1489  1490    1
  1304  1490  1491    1
  1305  1490  1492    1
  1306  1490  1493    1
  1307  1491  1494    1
  1308  1491  1495    1
  1309  1491  1496    1
  1310  1497  1498    1
  1311  1498  1499    1
  1312  1498  1500    1
  1313  1498  1501    1
  1314  1499  1502    1
  1315  1499  1503    1
  1316  1499  1504    1
  1317  1505  1506    1
  1318  1506  1507    1
  1319  1506  1508    1
  1320  1506  1509    1
  1321  1507  1510    1
  1322  1507  1511    1
  1323  1507  1512    1
  1324  1513  1514    1
  1325  1514  1515    1
  1326  1514  1516    1
  1327  1514  1517    1
  1328  1515  1518    1
  1329  1515  1519    1
  1330  1515  1520    1
  1331  1521  1522    1
  1332  1522  1523    1
  1333  1522  1524    1
  1334  1522  1525    1
  1335  1523  1526    1
  1336  1523  1527    1
  1337  1523  1528    1
  1338  1529  1530    1
  1339  1530  1531    1
  1340  1530  1532    1
  1341  1530  1533    1
  1342  1531  1534    1
  1343  1531  1535    1
  1344  1531  1536    1
  1345  1537  1538    1
  1346  1538  1539    1
  1347  1538  1540    1
  1348  1538  1541    1
  1349  1539  1542    1
  1350  1539  1543    1
  1351  1539  1544    1
  1352  1545  1546    1
  1353  1546  1547    1
  1354  1546  1548    1
  1355  1546  1549    1
  1356  1547  1550    1
  1357  1547  1551    1
  1358  1547  1552    1
  1359  1553  1554    1
  1360  1554  1555    1
  1361  1554  1556    1
  1362  1554  1557    1
  1363  1555  1558    1
  1364  1555  1559    1
  1365  1555  1560    1
  1366  1561  1562    1
  1367  1562  1563    1
  1368  1562  1564    1
  1369  1562  1565    1
  1370  1563  1566    1
  1371  1563  1567    1
  1372  1563  1568    1
  1373  1569  1570    1
  1374  1570  1571    1
  1375  1570  1572    1
  1376  1570  1573    1
  1377  1571  1574    1
  1378  1571  1575    1
  1379  1571  1576    1
  1380  1577  1578    1
  1381  1578  1579    1
  1382  1578  1580    1
  1383  1578  1581    1
  1384  1579  1582    1
  1385  1579  1583    1
  1386  1579  1584    1
  1387  1585  1586    1
  1388  1586  1587    1
  1389  1586  1588    1
  1390  1586  1589    1
  1391  1587  1590    1
  1392  1587  1591    1
  1393  1587  1592    1
  1394  1593  1594    1
  1395  1594  1595    1
  1396  1594  1596    1
  1397  1594  1597    1
  1398  1595  1598    1
  1399  1595  1599    1
  1400  1595  1600    1
  1401  1601  1602    1
  1402  1602  1603    1
  1403  1602  1604    1
  1404  1602  1605    1
  1405  1603  1606    1
  1406  1603  1607    1
  1407  1603  1608    1
  1408  1609  1610    1
  1409  1610  1611    1
  1410  1610  1612    1
  1411  1610  1613    1
  1412  1611  1614    1
  1413  1611  1615    1
  1414  1611  1616    1
  1415  1617  1618    1
  1416  1618  1619    1
  1417  1618  1620    1
  1418  1618  1621    1
  1419  1619  1622    1
  1420  1619  1623    1
  1421  1619  1624    1
  1422  1625  1626    1
  1423  1626  1627    1
  1424  1626  1628    1
  1425  1626  1629    1
  1426  1627  1630    1
  1427  1627  1631    1
  1428  1627  1632    1
  1429  1633  1634    1
  1430  1634  1635    1
  1431  1634  1636    1
  1432  1634  1637    1
  1433  1635  1638    1
  1434  1635  1639    1
  1435  1635  1640    1
  1436  1641  1642    1
  1437  1642  1643    1
  1438  1642  1644    1
  1439  1642  1645    1
  1440  1643  1646    1
  1441  1643  1647    1
  1442  1643  1648    1
  1443  1649  1650    1
  1444  1650  1651    1
  1445  1650  1652    1
  1446  1650  1653    1
  1447  1651  1654    1
  1448  1651  1655    1
  1449  1651  1656    1
  1450  1657  1658    1
  1451  1658  1659    1
  1452  1658  1660    1
  1453  1658  1661    1
  1454  1659  1662    1
  1455  1659  1663    1
  1456  1659  1664    1
  1457  1665  1666    1
  1458  1666  1667    1
  1459  1666  1668    1
  1460  1666  1669    1
  1461  1667  1670    1
  1462  1667  1671    1
  1463  1667  1672    1
  1464  1673  1674    1
  1465  1674  1675    1
  1466  1674  1676    1
  1467  1674  1677    1
  1468  1675  1678    1
  1469  1675  1679    1
  1470  1675  1680    1
  1471  1681  1682    1
  1472  1682  1683    1
  1473  1682  1684    1
  1474  1682  1685    1
  1475  1683  1686    1
  1476  1683  1687    1
  1477  1683  1688    1
