@<TRIPOS>MOLECULE
*****
 8 7 0 0 0
SMALL
GASTEIGER

@<TRIPOS>ATOM
      1 CL          0.7604    1.0698    0.3582 Cl      1  UNL1       -0.1257
      2 C          -0.7821    0.4825   -0.2995 C.3     1  UNL1        0.0198
      3 C          -1.9466    1.1271    0.4224 C.3     1  UNL1       -0.0517
      4 H          -0.8067    0.7210   -1.3665 H       1  UNL1        0.0427
      5 H          -0.8067   -0.6045   -0.1829 H       1  UNL1        0.0427
      6 H          -2.8935    0.7613    0.0127 H       1  UNL1        0.0241
      7 H          -1.9293    0.8923    1.4918 H       1  UNL1        0.0241
      8 H          -1.9293    2.2161    0.3097 H       1  UNL1        0.0241
@<TRIPOS>BOND
     1     1     2    1
     2     2     3    1
     3     2     4    1
     4     2     5    1
     5     3     6    1
     6     3     7    1
     7     3     8    1
