@<TRIPOS>MOLECULE
*****
 312 273 0 0 0
SMALL
GASTEIGER

@<TRIPOS>ATOM
      1 CL          1.7618    0.5177    1.3016 Cl      1  UNL1       -0.1257
      2 C           0.2212   -0.3181    1.5924 C.3     1  UNL1        0.0198
      3 C          -0.7505    0.5946    2.3103 C.3     1  UNL1       -0.0517
      4 H          -0.1816   -0.6298    0.6245 H       1  UNL1        0.0427
      5 H           0.4288   -1.2106    2.1892 H       1  UNL1        0.0427
      6 H          -1.6972    0.0739    2.4863 H       1  UNL1        0.0241
      7 H          -0.3545    0.9106    3.2810 H       1  UNL1        0.0241
      8 H          -0.9641    1.4907    1.7184 H       1  UNL1        0.0241
      9 CL         -0.2853    3.6985    0.8891 Cl      2  UNL2       -0.1257
     10 C          -0.4358    2.5321    2.2209 C.3     2  UNL2        0.0198
     11 C           0.0368    1.1621    1.7823 C.3     2  UNL2       -0.0517
     12 H           0.1622    2.8989    3.0600 H       2  UNL2        0.0427
     13 H          -1.4855    2.5016    2.5258 H       2  UNL2        0.0427
     14 H          -0.0585    0.4484    2.6069 H       2  UNL2        0.0241
     15 H          -0.5578    0.7876    0.9426 H       2  UNL2        0.0241
     16 H           1.0878    1.1843    1.4760 H       2  UNL2        0.0241
     17 CL          1.4602    2.7694    1.6318 Cl      3  UNL3       -0.1257
     18 C           0.3668    3.9354    2.4074 C.3     3  UNL3        0.0198
     19 C          -0.8533    4.1747    1.5434 C.3     3  UNL3       -0.0517
     20 H           0.0792    3.5316    3.3822 H       3  UNL3        0.0427
     21 H           0.9207    4.8654    2.5633 H       3  UNL3        0.0427
     22 H          -1.5226    4.8937    2.0266 H       3  UNL3        0.0241
     23 H          -0.5734    4.5799    0.5654 H       3  UNL3        0.0241
     24 H          -1.4138    3.2478    1.3834 H       3  UNL3        0.0241
     25 CL          0.7361    8.2429    2.5232 Cl      4  UNL4       -0.1257
     26 C          -0.4015    6.8782    2.5112 C.3     4  UNL4        0.0198
     27 C          -0.0912    5.9387    1.3650 C.3     4  UNL4       -0.0517
     28 H          -0.3178    6.3607    3.4710 H       4  UNL4        0.0427
     29 H          -1.4132    7.2830    2.4186 H       4  UNL4        0.0427
     30 H          -0.7953    5.1005    1.3632 H       4  UNL4        0.0241
     31 H          -0.1736    6.4497    0.4001 H       4  UNL4        0.0241
     32 H           0.9203    5.5286    1.4512 H       4  UNL4        0.0241
     33 CL         -0.1652    8.2580    3.9968 Cl      5  UNL5       -0.1257
     34 C           0.0768    9.0485    2.4242 C.3     5  UNL5        0.0198
     35 C          -0.4372    8.1695    1.3035 C.3     5  UNL5       -0.0517
     36 H          -0.4535   10.0048    2.4420 H       5  UNL5        0.0427
     37 H           1.1463    9.2434    2.3054 H       5  UNL5        0.0427
     38 H          -0.2851    8.6621    0.3378 H       5  UNL5        0.0241
     39 H           0.0898    7.2100    1.2787 H       5  UNL5        0.0241
     40 H          -1.5081    7.9704    1.4151 H       5  UNL5        0.0241
     41 CL          4.1378    7.3557   -0.1385 Cl      6  UNL6       -0.1257
     42 C           2.4946    6.7288    0.1135 C.3     6  UNL6        0.0198
     43 C           1.4663    7.7979   -0.1903 C.3     6  UNL6       -0.0517
     44 H           2.3596    5.8631   -0.5411 H       6  UNL6        0.0427
     45 H           2.4153    6.3979    1.1527 H       6  UNL6        0.0427
     46 H           0.4565    7.4055   -0.0332 H       6  UNL6        0.0241
     47 H           1.5946    8.6682    0.4618 H       6  UNL6        0.0241
     48 H           1.5390    8.1341   -1.2298 H       6  UNL6        0.0241
     49 CL          0.9407   10.7259    0.3180 Cl      7  UNL7       -0.1257
     50 C           1.8816    9.6339    1.3568 C.3     7  UNL7        0.0198
     51 C           2.3233   10.3490    2.6163 C.3     7  UNL7       -0.0517
     52 H           1.2521    8.7732    1.5995 H       7  UNL7        0.0427
     53 H           2.7460    9.2854    0.7848 H       7  UNL7        0.0427
     54 H           2.9022    9.6711    3.2516 H       7  UNL7        0.0241
     55 H           2.9549   11.2121    2.3814 H       7  UNL7        0.0241
     56 H           1.4629   10.7005    3.1951 H       7  UNL7        0.0241
     57 CL          5.0411    0.1693   -0.2328 Cl      8  UNL8       -0.1257
     58 C           3.4802   -0.5771   -0.6364 C.3     8  UNL8        0.0198
     59 C           2.4925   -0.3869    0.4953 C.3     8  UNL8       -0.0517
     60 H           3.1117   -0.1129   -1.5556 H       8  UNL8        0.0427
     61 H           3.6534   -1.6401   -0.8261 H       8  UNL8        0.0427
     62 H           1.5333   -0.8488    0.2405 H       8  UNL8        0.0241
     63 H           2.8542   -0.8498    1.4193 H       8  UNL8        0.0241
     64 H           2.3132    0.6755    0.6908 H       8  UNL8        0.0241
     65 CL          4.2318   -1.0585    5.2408 Cl      9  UNL9       -0.1257
     66 C           3.7854   -0.0280    3.8640 C.3     9  UNL9        0.0198
     67 C           2.2939    0.2330    3.8580 C.3     9  UNL9       -0.0517
     68 H           4.3432    0.9089    3.9488 H       9  UNL9        0.0427
     69 H           4.0941   -0.5376    2.9469 H       9  UNL9        0.0427
     70 H           2.0256    0.8681    3.0078 H       9  UNL9        0.0241
     71 H           1.7283   -0.7007    3.7725 H       9  UNL9        0.0241
     72 H           1.9771    0.7439    4.7732 H       9  UNL9        0.0241
     73 CL          1.2073    1.7050    0.8447 Cl     10  UNL10      -0.1257
     74 C           2.9675    1.8556    0.6558 C.3    10  UNL10       0.0198
     75 C           3.3194    2.2117   -0.7732 C.3    10  UNL10      -0.0517
     76 H           3.3161    2.6291    1.3459 H      10  UNL10       0.0427
     77 H           3.4204    0.9019    0.9411 H      10  UNL10       0.0427
     78 H           4.4047    2.3029   -0.8828 H      10  UNL10       0.0241
     79 H           2.9741    1.4412   -1.4703 H      10  UNL10       0.0241
     80 H           2.8700    3.1662   -1.0661 H      10  UNL10       0.0241
     81 CL          2.9634    0.9384    1.6295 Cl     11  UNL11      -0.1257
     82 C           1.6751   -0.2464    1.9347 C.3    11  UNL11       0.0198
     83 C           0.3239    0.4361    1.9702 C.3    11  UNL11      -0.0517
     84 H           1.7106   -0.9960    1.1391 H      11  UNL11       0.0427
     85 H           1.8872   -0.7376    2.8884 H      11  UNL11       0.0427
     86 H          -0.4651   -0.2989    2.1585 H      11  UNL11       0.0241
     87 H           0.2803    1.1880    2.7651 H      11  UNL11       0.0241
     88 H           0.1039    0.9299    1.0180 H      11  UNL11       0.0241
     89 CL          3.3109    3.2122    5.8770 Cl     12  UNL12      -0.1257
     90 C           3.6653    2.8584    4.1723 C.3    12  UNL12       0.0198
     91 C           2.4898    2.1622    3.5193 C.3    12  UNL12      -0.0517
     92 H           3.8843    3.8047    3.6697 H      12  UNL12       0.0427
     93 H           4.5583    2.2282    4.1370 H      12  UNL12       0.0427
     94 H           2.7145    1.9472    2.4697 H      12  UNL12       0.0241
     95 H           2.2648    1.2131    4.0168 H      12  UNL12       0.0241
     96 H           1.5916    2.7876    3.5501 H      12  UNL12       0.0241
     97 CL          4.8511    2.4373    0.4499 Cl     13  UNL13      -0.1257
     98 C           3.1068    2.7570    0.3407 C.3    13  UNL13       0.0198
     99 C           2.8475    4.0213   -0.4512 C.3    13  UNL13      -0.0517
    100 H           2.6350    1.8948   -0.1389 H      13  UNL13       0.0427
    101 H           2.7161    2.8491    1.3580 H      13  UNL13       0.0427
    102 H           1.7715    4.2125   -0.5148 H      13  UNL13       0.0241
    103 H           3.3163    4.8896    0.0233 H      13  UNL13       0.0241
    104 H           3.2352    3.9365   -1.4717 H      13  UNL13       0.0241
    105 CL          2.3845    3.1500    3.0592 Cl     14  UNL14      -0.1257
    106 C           1.1555    2.0096    2.4710 C.3    14  UNL14       0.0198
    107 C           0.3485    2.6305    1.3504 C.3    14  UNL14      -0.0517
    108 H           1.6694    1.1080    2.1260 H      14  UNL14       0.0427
    109 H           0.5104    1.7445    3.3133 H      14  UNL14       0.0427
    110 H          -0.4066    1.9232    0.9926 H      14  UNL14       0.0241
    111 H          -0.1698    3.5339    1.6884 H      14  UNL14       0.0241
    112 H           0.9876    2.8982    0.5026 H      14  UNL14       0.0241
    113 CL          5.0842    4.1359    3.9504 Cl     15  UNL15      -0.1257
    114 C           3.5835    5.0502    4.2123 C.3    15  UNL15       0.0198
    115 C           2.3951    4.2872    3.6663 C.3    15  UNL15      -0.0517
    116 H           3.4752    5.2204    5.2872 H      15  UNL15       0.0427
    117 H           3.6864    6.0178    3.7131 H      15  UNL15       0.0427
    118 H           1.4741    4.8557    3.8307 H      15  UNL15       0.0241
    119 H           2.4959    4.1135    2.5900 H      15  UNL15       0.0241
    120 H           2.2850    3.3171    4.1620 H      15  UNL15       0.0241
    121 CL          2.8443    5.6238    1.6204 Cl     16  UNL16      -0.1257
    122 C           1.7251    4.2961    1.9964 C.3    16  UNL16       0.0198
    123 C           0.2901    4.7726    1.9154 C.3    16  UNL16      -0.0517
    124 H           1.9071    3.4886    1.2816 H      16  UNL16       0.0427
    125 H           1.9576    3.9331    3.0015 H      16  UNL16       0.0427
    126 H          -0.3940    3.9502    2.1480 H      16  UNL16       0.0241
    127 H           0.0998    5.5809    2.6290 H      16  UNL16       0.0241
    128 H           0.0494    5.1370    0.9113 H      16  UNL16       0.0241
    129 CL          4.6808    5.5462    4.0525 Cl     17  UNL17      -0.1257
    130 C           3.6495    6.9628    4.3461 C.3    17  UNL17       0.0198
    131 C           2.3739    6.8677    3.5359 C.3    17  UNL17      -0.0517
    132 H           3.4277    7.0029    5.4163 H      17  UNL17       0.0427
    133 H           4.2176    7.8564    4.0724 H      17  UNL17       0.0427
    134 H           1.7432    7.7431    3.7212 H      17  UNL17       0.0241
    135 H           2.5877    6.8278    2.4628 H      17  UNL17       0.0241
    136 H           1.7989    5.9755    3.8049 H      17  UNL17       0.0241
    137 CL          3.1023    5.8264   -0.4194 Cl     18  UNL18      -0.1257
    138 C           1.7266    6.9282   -0.6437 C.3    18  UNL18       0.0198
    139 C           0.7636    6.8185    0.5196 C.3    18  UNL18      -0.0517
    140 H           2.1192    7.9455   -0.7282 H      18  UNL18       0.0427
    141 H           1.2325    6.6644   -1.5830 H      18  UNL18       0.0427
    142 H          -0.0812    7.4994    0.3754 H      18  UNL18       0.0241
    143 H           0.3655    5.8025    0.6104 H      18  UNL18       0.0241
    144 H           1.2510    7.0819    1.4641 H      18  UNL18       0.0241
    145 CL          3.2698    7.5196    2.0282 Cl     19  UNL19      -0.1257
    146 C           1.9026    6.3986    1.8526 C.3    19  UNL19       0.0198
    147 C           0.5889    7.1355    2.0064 C.3    19  UNL19      -0.0517
    148 H           1.9731    5.9323    0.8658 H      19  UNL19       0.0427
    149 H           2.0034    5.6213    2.6153 H      19  UNL19       0.0427
    150 H          -0.2490    6.4395    1.8972 H      19  UNL19       0.0241
    151 H           0.5105    7.6047    2.9926 H      19  UNL19       0.0241
    152 H           0.4802    7.9153    1.2455 H      19  UNL19       0.0241
    153 CL          4.8835    9.5076    3.0204 Cl     20  UNL20      -0.1257
    154 C           3.5985    8.5839    3.8279 C.3    20  UNL20       0.0198
    155 C           2.4007    9.4687    4.1016 C.3    20  UNL20      -0.0517
    156 H           3.3237    7.7485    3.1777 H      20  UNL20       0.0427
    157 H           4.0060    8.1828    4.7601 H      20  UNL20       0.0427
    158 H           1.6129    8.8939    4.5990 H      20  UNL20       0.0241
    159 H           2.6677   10.3074    4.7528 H      20  UNL20       0.0241
    160 H           1.9863    9.8738    3.1725 H      20  UNL20       0.0241
    161 CL          3.0429    7.9939    0.4307 Cl     21  UNL21      -0.1257
    162 C           1.9890    9.2944   -0.1649 C.3    21  UNL21       0.0198
    163 C           0.5325    8.9176    0.0067 C.3    21  UNL21      -0.0517
    164 H           2.2238   10.2030    0.3967 H      21  UNL21       0.0427
    165 H           2.2246    9.4636   -1.2193 H      21  UNL21       0.0427
    166 H          -0.1112    9.7227   -0.3619 H      21  UNL21       0.0241
    167 H           0.2893    8.0088   -0.5534 H      21  UNL21       0.0241
    168 H           0.2885    8.7472    1.0605 H      21  UNL21       0.0241
    169 CL          3.3548    9.2619    2.2672 Cl     22  UNL22      -0.1257
    170 C           1.7242    8.5569    2.2958 C.3    22  UNL22       0.0198
    171 C           0.7418    9.4627    1.5838 C.3    22  UNL22      -0.0517
    172 H           1.7713    7.5777    1.8109 H      22  UNL22       0.0427
    173 H           1.4355    8.4165    3.3412 H      22  UNL22       0.0427
    174 H          -0.2604    9.0228    1.6050 H      22  UNL22       0.0241
    175 H           0.6884   10.4452    2.0640 H      22  UNL22       0.0241
    176 H           1.0238    9.6075    0.5357 H      22  UNL22       0.0241
    177 CL          5.0825   10.4007    4.2717 Cl     23  UNL23      -0.1257
    178 C           3.5714    9.5202    3.9589 C.3    23  UNL23       0.0198
    179 C           2.4062   10.4826    3.8645 C.3    23  UNL23      -0.0517
    180 H           3.6920    8.9637    3.0252 H      23  UNL23       0.0427
    181 H           3.4211    8.8073    4.7745 H      23  UNL23       0.0427
    182 H           1.4787    9.9340    3.6718 H      23  UNL23       0.0241
    183 H           2.2785   11.0432    4.7963 H      23  UNL23       0.0241
    184 H           2.5491   11.1994    3.0492 H      23  UNL23       0.0241
    185 CL          5.9300   -0.6806    2.7856 Cl     24  UNL24      -0.1257
    186 C           4.5541   -0.7916    1.6669 C.3    24  UNL24       0.0198
    187 C           3.4402    0.1371    2.1020 C.3    24  UNL24      -0.0517
    188 H           4.9103   -0.5291    0.6668 H      24  UNL24       0.0427
    189 H           4.2115   -1.8301    1.6553 H      24  UNL24       0.0427
    190 H           2.5959    0.0640    1.4090 H      24  UNL24       0.0241
    191 H           3.0776   -0.1200    3.1026 H      24  UNL24       0.0241
    192 H           3.7754    1.1794    2.1154 H      24  UNL24       0.0241
    193 CL          5.8393    3.5032   -1.5631 Cl     25  UNL25      -0.1257
    194 C           5.9655    1.9720   -0.6708 C.3    25  UNL25       0.0198
    195 C           6.6694    2.1854    0.6527 C.3    25  UNL25      -0.0517
    196 H           4.9534    1.5879   -0.5147 H      25  UNL25       0.0427
    197 H           6.5171    1.2626   -1.2940 H      25  UNL25       0.0427
    198 H           6.7438    1.2387    1.1973 H      25  UNL25       0.0241
    199 H           7.6841    2.5695    0.5048 H      25  UNL25       0.0241
    200 H           6.1224    2.8943    1.2830 H      25  UNL25       0.0241
    201 CL          2.3016    2.4751    0.6895 Cl     26  UNL26      -0.1257
    202 C           3.9872    2.2918    1.2205 C.3    26  UNL26       0.0198
    203 C           4.0469    1.9946    2.7040 C.3    26  UNL26      -0.0517
    204 H           4.4364    1.4787    0.6432 H      26  UNL26       0.0427
    205 H           4.5169    3.2200    0.9888 H      26  UNL26       0.0427
    206 H           5.0876    1.8828    3.0246 H      26  UNL26       0.0241
    207 H           3.5995    2.8048    3.2890 H      26  UNL26       0.0241
    208 H           3.5191    1.0657    2.9439 H      26  UNL26       0.0241
    209 CL          8.3324    0.5069    4.5676 Cl     27  UNL27      -0.1257
    210 C           6.8137   -0.3748    4.8374 C.3    27  UNL27       0.0198
    211 C           5.6671    0.5930    5.0410 C.3    27  UNL27      -0.0517
    212 H           6.6340   -1.0119    3.9668 H      27  UNL27       0.0427
    213 H           6.9448   -1.0119    5.7165 H      27  UNL27       0.0427
    214 H           4.7348    0.0437    5.2066 H      27  UNL27       0.0241
    215 H           5.8393    1.2342    5.9117 H      27  UNL27       0.0241
    216 H           5.5289    1.2342    4.1643 H      27  UNL27       0.0241
    217 CL          4.2324    4.2910   -0.1301 Cl     28  UNL28      -0.1257
    218 C           5.8741    4.9615   -0.0205 C.3    28  UNL28       0.0198
    219 C           6.9045    3.8532   -0.0702 C.3    28  UNL28      -0.0517
    220 H           6.0110    5.6567   -0.8536 H      28  UNL28       0.0427
    221 H           5.9489    5.5194    0.9171 H      28  UNL28       0.0427
    222 H           7.9133    4.2728   -0.0023 H      28  UNL28       0.0241
    223 H           6.7743    3.1531    0.7615 H      28  UNL28       0.0241
    224 H           6.8364    3.2902   -1.0069 H      28  UNL28       0.0241
    225 CL          5.9343    4.5893    1.9404 Cl     29  UNL29      -0.1257
    226 C           4.3845    3.9375    2.5147 C.3    29  UNL29       0.0198
    227 C           3.3432    4.0000    1.4173 C.3    29  UNL29      -0.0517
    228 H           4.5503    2.9047    2.8343 H      29  UNL29       0.0427
    229 H           4.0711    4.5262    3.3814 H      29  UNL29       0.0427
    230 H           2.3911    3.5971    1.7773 H      29  UNL29       0.0241
    231 H           3.1710    5.0313    1.0923 H      29  UNL29       0.0241
    232 H           3.6496    3.4119    0.5459 H      29  UNL29       0.0241
    233 CL          8.2652    1.7626    3.5428 Cl     30  UNL30      -0.1257
    234 C           6.6960    1.9259    4.3599 C.3    30  UNL30       0.0198
    235 C           5.7797    2.8380    3.5719 C.3    30  UNL30      -0.0517
    236 H           6.2604    0.9274    4.4568 H      30  UNL30       0.0427
    237 H           6.8768    2.3277    5.3608 H      30  UNL30       0.0427
    238 H           4.8150    2.9343    4.0804 H      30  UNL30       0.0241
    239 H           6.2088    3.8403    3.4711 H      30  UNL30       0.0241
    240 H           5.5932    2.4418    2.5683 H      30  UNL30       0.0241
    241 CL          7.7576    7.9450    0.9710 Cl     31  UNL31      -0.1257
    242 C           7.0006    6.6223    0.0575 C.3    31  UNL31       0.0198
    243 C           5.5530    6.9470   -0.2452 C.3    31  UNL31      -0.0517
    244 H           7.5686    6.4822   -0.8666 H      31  UNL31       0.0427
    245 H           7.0770    5.7110    0.6572 H      31  UNL31       0.0427
    246 H           5.0926    6.1285   -0.8079 H      31  UNL31       0.0241
    247 H           4.9774    7.0881    0.6755 H      31  UNL31       0.0241
    248 H           5.4683    7.8582   -0.8463 H      31  UNL31       0.0241
    249 CL          2.1781    4.7859    0.8386 Cl     32  UNL32      -0.1257
    250 C           3.2643    4.5572    2.2258 C.3    32  UNL32       0.0198
    251 C           4.7109    4.6165    1.7826 C.3    32  UNL32      -0.0517
    252 H           3.0494    5.3427    2.9559 H      32  UNL32       0.0427
    253 H           3.0359    3.5877    2.6772 H      32  UNL32       0.0427
    254 H           5.3747    4.4750    2.6416 H      32  UNL32       0.0241
    255 H           4.9342    3.8323    1.0518 H      32  UNL32       0.0241
    256 H           4.9477    5.5851    1.3301 H      32  UNL32       0.0241
    257 CL          4.7727    5.4244    2.7929 Cl     33  UNL33      -0.1257
    258 C           6.4069    4.9219    3.2762 C.3    33  UNL33       0.0198
    259 C           6.3724    4.2268    4.6210 C.3    33  UNL33      -0.0517
    260 H           6.7968    4.2534    2.5035 H      33  UNL33       0.0427
    261 H           7.0365    5.8151    3.3169 H      33  UNL33       0.0427
    262 H           7.3819    3.9199    4.9129 H      33  UNL33       0.0241
    263 H           5.9836    4.8903    5.4005 H      33  UNL33       0.0241
    264 H           5.7443    3.3306    4.5881 H      33  UNL33       0.0241
    265 CL          8.3713    8.8807   -0.0632 Cl     34  UNL34      -0.1257
    266 C           6.8098    8.0338   -0.0267 C.3    34  UNL34       0.0198
    267 C           5.6669    9.0260   -0.0709 C.3    34  UNL34      -0.0517
    268 H           6.7717    7.3590   -0.8865 H      34  UNL34       0.0427
    269 H           6.7708    7.4371    0.8889 H      34  UNL34       0.0427
    270 H           4.7081    8.4981   -0.0482 H      34  UNL34       0.0241
    271 H           5.6978    9.7050    0.7875 H      34  UNL34       0.0241
    272 H           5.6987    9.6271   -0.9856 H      34  UNL34       0.0241
    273 CL          5.6352    7.8282    1.0176 Cl     35  UNL35      -0.1257
    274 C           4.6437    7.0893    2.2933 C.3    35  UNL35       0.0198
    275 C           3.3873    6.4829    1.7047 C.3    35  UNL35      -0.0517
    276 H           5.2478    6.3250    2.7903 H      35  UNL35       0.0427
    277 H           4.3953    7.8671    3.0209 H      35  UNL35       0.0427
    278 H           2.7812    6.0295    2.4955 H      35  UNL35       0.0241
    279 H           2.7765    7.2424    1.2058 H      35  UNL35       0.0241
    280 H           3.6279    5.7023    0.9755 H      35  UNL35       0.0241
    281 CL          8.2233    6.1148    3.4958 Cl     36  UNL36      -0.1257
    282 C           6.6062    6.8106    3.2556 C.3    36  UNL36       0.0198
    283 C           5.8646    6.8971    4.5729 C.3    36  UNL36      -0.0517
    284 H           6.7282    7.8032    2.8127 H      36  UNL36       0.0427
    285 H           6.0671    6.1751    2.5475 H      36  UNL36       0.0427
    286 H           4.8696    7.3264    4.4180 H      36  UNL36       0.0241
    287 H           5.7379    5.9068    5.0223 H      36  UNL36       0.0241
    288 H           6.3981    7.5327    5.2872 H      36  UNL36       0.0241
    289 CL          9.1095    9.9600   -0.4214 Cl     37  UNL37      -0.1257
    290 C           7.5779   10.1547    0.4577 C.3    37  UNL37       0.0198
    291 C           6.4017    9.9519   -0.4741 C.3    37  UNL37      -0.0517
    292 H           7.5599    9.4232    1.2706 H      37  UNL37       0.0427
    293 H           7.5621   11.1591    0.8900 H      37  UNL37       0.0427
    294 H           5.4615   10.0732    0.0735 H      37  UNL37       0.0241
    295 H           6.4123   10.6814   -1.2906 H      37  UNL37       0.0241
    296 H           6.4101    8.9477   -0.9105 H      37  UNL37       0.0241
    297 CL          9.1122   10.0161    1.5495 Cl     38  UNL38      -0.1257
    298 C           7.9480    8.8786    2.2618 C.3    38  UNL38       0.0198
    299 C           6.5668    9.1006    1.6826 C.3    38  UNL38      -0.0517
    300 H           8.2977    7.8634    2.0540 H      38  UNL38       0.0427
    301 H           7.9445    9.0331    3.3445 H      38  UNL38       0.0427
    302 H           5.8546    8.3970    2.1254 H      38  UNL38       0.0241
    303 H           6.2093   10.1152    1.8873 H      38  UNL38       0.0241
    304 H           6.5620    8.9470    0.5985 H      38  UNL38       0.0241
    305 CL          5.2421    9.6955    5.5903 Cl     39  UNL39      -0.1257
    306 C           6.5967    9.1154    4.5978 C.3    39  UNL39       0.0198
    307 C           6.1565    8.9174    3.1626 C.3    39  UNL39      -0.0517
    308 H           7.4006    9.8544    4.6589 H      39  UNL39       0.0427
    309 H           6.9521    8.1750    5.0282 H      39  UNL39       0.0427
    310 H           6.9953    8.5601    2.5567 H      39  UNL39       0.0241
    311 H           5.3519    8.1780    3.0931 H      39  UNL39       0.0241
    312 H           5.7999    9.8552    2.7243 H      39  UNL39       0.0241
@<TRIPOS>BOND
     1     1     2    1
     2     2     3    1
     3     2     4    1
     4     2     5    1
     5     3     6    1
     6     3     7    1
     7     3     8    1
     8     9    10    1
     9    10    11    1
    10    10    12    1
    11    10    13    1
    12    11    14    1
    13    11    15    1
    14    11    16    1
    15    17    18    1
    16    18    19    1
    17    18    20    1
    18    18    21    1
    19    19    22    1
    20    19    23    1
    21    19    24    1
    22    25    26    1
    23    26    27    1
    24    26    28    1
    25    26    29    1
    26    27    30    1
    27    27    31    1
    28    27    32    1
    29    33    34    1
    30    34    35    1
    31    34    36    1
    32    34    37    1
    33    35    38    1
    34    35    39    1
    35    35    40    1
    36    41    42    1
    37    42    43    1
    38    42    44    1
    39    42    45    1
    40    43    46    1
    41    43    47    1
    42    43    48    1
    43    49    50    1
    44    50    51    1
    45    50    52    1
    46    50    53    1
    47    51    54    1
    48    51    55    1
    49    51    56    1
    50    57    58    1
    51    58    59    1
    52    58    60    1
    53    58    61    1
    54    59    62    1
    55    59    63    1
    56    59    64    1
    57    65    66    1
    58    66    67    1
    59    66    68    1
    60    66    69    1
    61    67    70    1
    62    67    71    1
    63    67    72    1
    64    73    74    1
    65    74    75    1
    66    74    76    1
    67    74    77    1
    68    75    78    1
    69    75    79    1
    70    75    80    1
    71    81    82    1
    72    82    83    1
    73    82    84    1
    74    82    85    1
    75    83    86    1
    76    83    87    1
    77    83    88    1
    78    89    90    1
    79    90    91    1
    80    90    92    1
    81    90    93    1
    82    91    94    1
    83    91    95    1
    84    91    96    1
    85    97    98    1
    86    98    99    1
    87    98   100    1
    88    98   101    1
    89    99   102    1
    90    99   103    1
    91    99   104    1
    92   105   106    1
    93   106   107    1
    94   106   108    1
    95   106   109    1
    96   107   110    1
    97   107   111    1
    98   107   112    1
    99   113   114    1
   100   114   115    1
   101   114   116    1
   102   114   117    1
   103   115   118    1
   104   115   119    1
   105   115   120    1
   106   121   122    1
   107   122   123    1
   108   122   124    1
   109   122   125    1
   110   123   126    1
   111   123   127    1
   112   123   128    1
   113   129   130    1
   114   130   131    1
   115   130   132    1
   116   130   133    1
   117   131   134    1
   118   131   135    1
   119   131   136    1
   120   137   138    1
   121   138   139    1
   122   138   140    1
   123   138   141    1
   124   139   142    1
   125   139   143    1
   126   139   144    1
   127   145   146    1
   128   146   147    1
   129   146   148    1
   130   146   149    1
   131   147   150    1
   132   147   151    1
   133   147   152    1
   134   153   154    1
   135   154   155    1
   136   154   156    1
   137   154   157    1
   138   155   158    1
   139   155   159    1
   140   155   160    1
   141   161   162    1
   142   162   163    1
   143   162   164    1
   144   162   165    1
   145   163   166    1
   146   163   167    1
   147   163   168    1
   148   169   170    1
   149   170   171    1
   150   170   172    1
   151   170   173    1
   152   171   174    1
   153   171   175    1
   154   171   176    1
   155   177   178    1
   156   178   179    1
   157   178   180    1
   158   178   181    1
   159   179   182    1
   160   179   183    1
   161   179   184    1
   162   185   186    1
   163   186   187    1
   164   186   188    1
   165   186   189    1
   166   187   190    1
   167   187   191    1
   168   187   192    1
   169   193   194    1
   170   194   195    1
   171   194   196    1
   172   194   197    1
   173   195   198    1
   174   195   199    1
   175   195   200    1
   176   201   202    1
   177   202   203    1
   178   202   204    1
   179   202   205    1
   180   203   206    1
   181   203   207    1
   182   203   208    1
   183   209   210    1
   184   210   211    1
   185   210   212    1
   186   210   213    1
   187   211   214    1
   188   211   215    1
   189   211   216    1
   190   217   218    1
   191   218   219    1
   192   218   220    1
   193   218   221    1
   194   219   222    1
   195   219   223    1
   196   219   224    1
   197   225   226    1
   198   226   227    1
   199   226   228    1
   200   226   229    1
   201   227   230    1
   202   227   231    1
   203   227   232    1
   204   233   234    1
   205   234   235    1
   206   234   236    1
   207   234   237    1
   208   235   238    1
   209   235   239    1
   210   235   240    1
   211   241   242    1
   212   242   243    1
   213   242   244    1
   214   242   245    1
   215   243   246    1
   216   243   247    1
   217   243   248    1
   218   249   250    1
   219   250   251    1
   220   250   252    1
   221   250   253    1
   222   251   254    1
   223   251   255    1
   224   251   256    1
   225   257   258    1
   226   258   259    1
   227   258   260    1
   228   258   261    1
   229   259   262    1
   230   259   263    1
   231   259   264    1
   232   265   266    1
   233   266   267    1
   234   266   268    1
   235   266   269    1
   236   267   270    1
   237   267   271    1
   238   267   272    1
   239   273   274    1
   240   274   275    1
   241   274   276    1
   242   274   277    1
   243   275   278    1
   244   275   279    1
   245   275   280    1
   246   281   282    1
   247   282   283    1
   248   282   284    1
   249   282   285    1
   250   283   286    1
   251   283   287    1
   252   283   288    1
   253   289   290    1
   254   290   291    1
   255   290   292    1
   256   290   293    1
   257   291   294    1
   258   291   295    1
   259   291   296    1
   260   297   298    1
   261   298   299    1
   262   298   300    1
   263   298   301    1
   264   299   302    1
   265   299   303    1
   266   299   304    1
   267   305   306    1
   268   306   307    1
   269   306   308    1
   270   306   309    1
   271   307   310    1
   272   307   311    1
   273   307   312    1
