@<TRIPOS>MOLECULE
*****
 200 175 0 0 0
SMALL
GASTEIGER

@<TRIPOS>ATOM
      1 CL         -0.4404    3.9166    0.8463 Cl      1  UNL1       -0.1257
      2 C           0.0114    2.2053    1.0015 C.3     1  UNL1        0.0198
      3 C          -1.2038    1.3180    0.8311 C.3     1  UNL1       -0.0517
      4 H           0.7635    1.9842    0.2390 H       1  UNL1        0.0427
      5 H           0.4607    2.0630    1.9883 H       1  UNL1        0.0427
      6 H          -0.9188    0.2655    0.9278 H       1  UNL1        0.0241
      7 H          -1.9615    1.5330    1.5918 H       1  UNL1        0.0241
      8 H          -1.6591    1.4543   -0.1553 H       1  UNL1        0.0241
      9 CL         -0.0381   11.2022    0.6901 Cl      2  UNL2       -0.1257
     10 C           0.4137    9.4909    0.8453 C.3     2  UNL2        0.0198
     11 C          -0.8014    8.6037    0.6749 C.3     2  UNL2       -0.0517
     12 H           1.1659    9.2699    0.0827 H       2  UNL2        0.0427
     13 H           0.8631    9.3486    1.8321 H       2  UNL2        0.0427
     14 H          -0.5164    7.5512    0.7716 H       2  UNL2        0.0241
     15 H          -1.5591    8.8186    1.4356 H       2  UNL2        0.0241
     16 H          -1.2567    8.7400   -0.3115 H       2  UNL2        0.0241
     17 CL         -0.1787   18.1285    0.8463 Cl      3  UNL3       -0.1257
     18 C           0.2731   16.4172    1.0015 C.3     3  UNL3        0.0198
     19 C          -0.9420   15.5299    0.8311 C.3     3  UNL3       -0.0517
     20 H           1.0252   16.1961    0.2390 H       3  UNL3        0.0427
     21 H           0.7225   16.2749    1.9883 H       3  UNL3        0.0427
     22 H          -0.6570   14.4774    0.9278 H       3  UNL3        0.0241
     23 H          -1.6997   15.7449    1.5918 H       3  UNL3        0.0241
     24 H          -1.3974   15.6662   -0.1553 H       3  UNL3        0.0241
     25 CL         -0.9365   24.8672    0.6100 Cl      4  UNL4       -0.1257
     26 C          -0.4847   23.1559    0.7652 C.3     4  UNL4        0.0198
     27 C          -1.6999   22.2687    0.5948 C.3     4  UNL4       -0.0517
     28 H           0.2674   22.9349    0.0026 H       4  UNL4        0.0427
     29 H          -0.0354   23.0136    1.7520 H       4  UNL4        0.0427
     30 H          -1.4149   21.2162    0.6915 H       4  UNL4        0.0241
     31 H          -2.4576   22.4836    1.3555 H       4  UNL4        0.0241
     32 H          -2.1552   22.4050   -0.3916 H       4  UNL4        0.0241
     33 CL          6.8243   10.5302   -1.0072 Cl      5  UNL5       -0.1257
     34 C           5.2818    9.6485   -1.0072 C.3     5  UNL5        0.0198
     35 C           4.1173   10.6163   -1.0072 C.3     5  UNL5       -0.0517
     36 H           5.2572    9.0114   -1.8958 H       5  UNL5        0.0427
     37 H           5.2572    9.0114   -0.1187 H       5  UNL5        0.0427
     38 H           3.1704   10.0670   -1.0072 H       5  UNL5        0.0241
     39 H           4.1346   11.2575   -0.1198 H       5  UNL5        0.0241
     40 H           4.1346   11.2575   -1.8946 H       5  UNL5        0.0241
     41 CL         11.0547    0.2483    0.3463 Cl      6  UNL6       -0.1257
     42 C           9.5122   -0.6334    0.3463 C.3     6  UNL6        0.0198
     43 C           8.3477    0.3344    0.3463 C.3     6  UNL6       -0.0517
     44 H           9.4876   -1.2705   -0.5423 H       6  UNL6        0.0427
     45 H           9.4876   -1.2705    1.2348 H       6  UNL6        0.0427
     46 H           7.4008   -0.2149    0.3463 H       6  UNL6        0.0241
     47 H           8.3650    0.9755    1.2337 H       6  UNL6        0.0241
     48 H           8.3650    0.9755   -0.5411 H       6  UNL6        0.0241
     49 CL         11.3770    3.7329    1.2682 Cl      7  UNL7       -0.1257
     50 C           9.8345    2.8512    1.2682 C.3     7  UNL7        0.0198
     51 C           8.6700    3.8190    1.2682 C.3     7  UNL7       -0.0517
     52 H           9.8099    2.2141    0.3796 H       7  UNL7        0.0427
     53 H           9.8099    2.2141    2.1567 H       7  UNL7        0.0427
     54 H           7.7231    3.2697    1.2682 H       7  UNL7        0.0241
     55 H           8.6873    4.4602    2.1556 H       7  UNL7        0.0241
     56 H           8.6873    4.4602    0.3808 H       7  UNL7        0.0241
     57 CL         11.5860    7.2331   -0.5228 Cl      8  UNL8       -0.1257
     58 C          10.0435    6.3514   -0.5228 C.3     8  UNL8        0.0198
     59 C           8.8790    7.3192   -0.5228 C.3     8  UNL8       -0.0517
     60 H          10.0189    5.7143   -1.4114 H       8  UNL8        0.0427
     61 H          10.0189    5.7143    0.3657 H       8  UNL8        0.0427
     62 H           7.9321    6.7699   -0.5228 H       8  UNL8        0.0241
     63 H           8.8963    7.9604    0.3646 H       8  UNL8        0.0241
     64 H           8.8963    7.9604   -1.4102 H       8  UNL8        0.0241
     65 CL         11.4610   10.9208    0.8307 Cl      9  UNL9       -0.1257
     66 C           9.9185   10.0391    0.8307 C.3     9  UNL9        0.0198
     67 C           8.7540   11.0069    0.8307 C.3     9  UNL9       -0.0517
     68 H           9.8939    9.4020   -0.0579 H       9  UNL9        0.0427
     69 H           9.8939    9.4020    1.7192 H       9  UNL9        0.0427
     70 H           7.8071   10.4576    0.8307 H       9  UNL9        0.0241
     71 H           8.7713   11.6481    1.7181 H       9  UNL9        0.0241
     72 H           8.7713   11.6481   -0.0567 H       9  UNL9        0.0241
     73 CL         11.7500   14.3371   -0.0228 Cl     10  UNL10      -0.1257
     74 C          10.2075   13.4554   -0.0228 C.3    10  UNL10       0.0198
     75 C           9.0430   14.4232   -0.0228 C.3    10  UNL10      -0.0517
     76 H          10.1829   12.8183   -0.9114 H      10  UNL10       0.0427
     77 H          10.1829   12.8183    0.8657 H      10  UNL10       0.0427
     78 H           8.0961   13.8739   -0.0228 H      10  UNL10       0.0241
     79 H           9.0603   15.0644    0.8646 H      10  UNL10       0.0241
     80 H           9.0603   15.0644   -0.9102 H      10  UNL10       0.0241
     81 CL         11.4629   18.1166    0.7995 Cl     11  UNL11      -0.1257
     82 C           9.9204   17.2349    0.7995 C.3    11  UNL11       0.0198
     83 C           8.7559   18.2027    0.7995 C.3    11  UNL11      -0.0517
     84 H           9.8958   16.5978   -0.0891 H      11  UNL11       0.0427
     85 H           9.8958   16.5978    1.6880 H      11  UNL11       0.0427
     86 H           7.8090   17.6534    0.7995 H      11  UNL11       0.0241
     87 H           8.7732   18.8439    1.6869 H      11  UNL11       0.0241
     88 H           8.7732   18.8439   -0.0879 H      11  UNL11       0.0241
     89 CL         10.4879   22.8184   -0.7767 Cl     12  UNL12      -0.1257
     90 C           9.2463   24.0893   -0.7767 C.3    12  UNL12       0.0198
     91 C           9.8899   25.4599   -0.7767 C.3    12  UNL12      -0.0517
     92 H           8.6236   23.9527   -1.6653 H      12  UNL12       0.0427
     93 H           8.6236   23.9527    0.1118 H      12  UNL12       0.0427
     94 H           9.1200   26.2381   -0.7767 H      12  UNL12       0.0241
     95 H          10.5148   25.6045    0.1107 H      12  UNL12       0.0241
     96 H          10.5148   25.6045   -1.6641 H      12  UNL12       0.0241
     97 CL         15.2442    3.9223   -1.0228 Cl     13  UNL13      -0.1257
     98 C          13.7017    3.0406   -1.0228 C.3    13  UNL13       0.0198
     99 C          12.5372    4.0084   -1.0228 C.3    13  UNL13      -0.0517
    100 H          13.6771    2.4035   -1.9114 H      13  UNL13       0.0427
    101 H          13.6771    2.4035   -0.1343 H      13  UNL13       0.0427
    102 H          11.5903    3.4591   -1.0228 H      13  UNL13       0.0241
    103 H          12.5545    4.6496   -0.1354 H      13  UNL13       0.0241
    104 H          12.5545    4.6496   -1.9102 H      13  UNL13       0.0241
    105 CL         16.6407   14.4777    1.5534 Cl     14  UNL14      -0.1257
    106 C          15.0982   13.5960    1.5534 C.3    14  UNL14       0.0198
    107 C          13.9337   14.5638    1.5534 C.3    14  UNL14      -0.0517
    108 H          15.0736   12.9589    0.6648 H      14  UNL14       0.0427
    109 H          15.0736   12.9589    2.4419 H      14  UNL14       0.0427
    110 H          12.9868   14.0145    1.5534 H      14  UNL14       0.0241
    111 H          13.9510   15.2050    2.4408 H      14  UNL14       0.0241
    112 H          13.9510   15.2050    0.6660 H      14  UNL14       0.0241
    113 CL         16.6641   21.5915    0.7995 Cl     15  UNL15      -0.1257
    114 C          15.1216   20.7098    0.7995 C.3    15  UNL15       0.0198
    115 C          13.9571   21.6776    0.7995 C.3    15  UNL15      -0.0517
    116 H          15.0970   20.0727   -0.0891 H      15  UNL15       0.0427
    117 H          15.0970   20.0727    1.6880 H      15  UNL15       0.0427
    118 H          13.0102   21.1283    0.7995 H      15  UNL15       0.0241
    119 H          13.9744   22.3188    1.6869 H      15  UNL15       0.0241
    120 H          13.9744   22.3188   -0.0879 H      15  UNL15       0.0241
    121 CL         21.8457   -0.3592    0.9557 Cl     16  UNL16      -0.1257
    122 C          20.3032   -1.2409    0.9557 C.3    16  UNL16       0.0198
    123 C          19.1387   -0.2731    0.9557 C.3    16  UNL16      -0.0517
    124 H          20.2786   -1.8780    0.0671 H      16  UNL16       0.0427
    125 H          20.2786   -1.8780    1.8442 H      16  UNL16       0.0427
    126 H          18.1918   -0.8224    0.9557 H      16  UNL16       0.0241
    127 H          19.1560    0.3681    1.8431 H      16  UNL16       0.0241
    128 H          19.1560    0.3681    0.0683 H      16  UNL16       0.0241
    129 CL         22.1817    3.0805    0.8874 Cl     17  UNL17      -0.1257
    130 C          20.6392    2.1988    0.8874 C.3    17  UNL17       0.0198
    131 C          19.4747    3.1666    0.8874 C.3    17  UNL17      -0.0517
    132 H          20.6146    1.5617   -0.0012 H      17  UNL17       0.0427
    133 H          20.6146    1.5617    1.7759 H      17  UNL17       0.0427
    134 H          18.5278    2.6173    0.8874 H      17  UNL17       0.0241
    135 H          19.4920    3.8078    1.7748 H      17  UNL17       0.0241
    136 H          19.4920    3.8078   -0.0000 H      17  UNL17       0.0241
    137 CL         18.4940   11.6317   -0.9486 Cl     18  UNL18      -0.1257
    138 C          19.9734   10.6477   -0.9486 C.3    18  UNL18       0.0198
    139 C          19.6300    9.1730   -0.9486 C.3    18  UNL18      -0.0517
    140 H          20.5540   10.9112   -1.8372 H      18  UNL18       0.0427
    141 H          20.5540   10.9112   -0.0601 H      18  UNL18       0.0427
    142 H          20.5454    8.5726   -0.9486 H      18  UNL18       0.0241
    143 H          19.0490    8.9012   -0.0612 H      18  UNL18       0.0241
    144 H          19.0490    8.9012   -1.8360 H      18  UNL18       0.0241
    145 CL         21.8672   18.0268    0.7995 Cl     19  UNL19      -0.1257
    146 C          20.3247   17.1451    0.7995 C.3    19  UNL19       0.0198
    147 C          19.1602   18.1129    0.7995 C.3    19  UNL19      -0.0517
    148 H          20.3001   16.5080   -0.0891 H      19  UNL19       0.0427
    149 H          20.3001   16.5080    1.6880 H      19  UNL19       0.0427
    150 H          18.2133   17.5636    0.7995 H      19  UNL19       0.0241
    151 H          19.1775   18.7541    1.6869 H      19  UNL19       0.0241
    152 H          19.1775   18.7541   -0.0879 H      19  UNL19       0.0241
    153 CL         21.4410   23.2578   -0.3295 Cl     20  UNL20      -0.1257
    154 C          20.1995   24.5287   -0.3295 C.3    20  UNL20       0.0198
    155 C          20.8430   25.8993   -0.3295 C.3    20  UNL20      -0.0517
    156 H          19.5767   24.3922   -1.2181 H      20  UNL20       0.0427
    157 H          19.5767   24.3922    0.5590 H      20  UNL20       0.0427
    158 H          20.0731   26.6775   -0.3295 H      20  UNL20       0.0241
    159 H          21.4679   26.0440    0.5579 H      20  UNL20       0.0241
    160 H          21.4679   26.0440   -1.2169 H      20  UNL20       0.0241
    161 CL         27.6328   19.7790    0.5143 Cl     21  UNL21      -0.1257
    162 C          26.0903   18.8973    0.5143 C.3    21  UNL21       0.0198
    163 C          24.9258   19.8651    0.5143 C.3    21  UNL21      -0.0517
    164 H          26.0657   18.2602   -0.3743 H      21  UNL21       0.0427
    165 H          26.0657   18.2602    1.4028 H      21  UNL21       0.0427
    166 H          23.9789   19.3158    0.5143 H      21  UNL21       0.0241
    167 H          24.9431   20.5063    1.4017 H      21  UNL21       0.0241
    168 H          24.9431   20.5063   -0.3731 H      21  UNL21       0.0241
    169 CL         27.2168   29.4240    1.4870 Cl     22  UNL22      -0.1257
    170 C          25.6743   28.5423    1.4870 C.3    22  UNL22       0.0198
    171 C          24.5098   29.5101    1.4870 C.3    22  UNL22      -0.0517
    172 H          25.6497   27.9052    0.5984 H      22  UNL22       0.0427
    173 H          25.6497   27.9052    2.3755 H      22  UNL22       0.0427
    174 H          23.5629   28.9608    1.4870 H      22  UNL22       0.0241
    175 H          24.5271   30.1513    2.3744 H      22  UNL22       0.0241
    176 H          24.5271   30.1513    0.5996 H      22  UNL22       0.0241
    177 CL         32.2735    0.1721    0.9245 Cl     23  UNL23      -0.1257
    178 C          30.7310   -0.7096    0.9245 C.3    23  UNL23       0.0198
    179 C          29.5665    0.2582    0.9245 C.3    23  UNL23      -0.0517
    180 H          30.7064   -1.3467    0.0359 H      23  UNL23       0.0427
    181 H          30.7064   -1.3467    1.8130 H      23  UNL23       0.0427
    182 H          28.6196   -0.2911    0.9245 H      23  UNL23       0.0241
    183 H          29.5838    0.8994    1.8119 H      23  UNL23       0.0241
    184 H          29.5838    0.8994    0.0371 H      23  UNL23       0.0241
    185 CL         32.1328    3.9262    0.9713 Cl     24  UNL24      -0.1257
    186 C          30.5903    3.0445    0.9713 C.3    24  UNL24       0.0198
    187 C          29.4258    4.0123    0.9713 C.3    24  UNL24      -0.0517
    188 H          30.5657    2.4074    0.0827 H      24  UNL24       0.0427
    189 H          30.5657    2.4074    1.8598 H      24  UNL24       0.0427
    190 H          28.4789    3.4630    0.9713 H      24  UNL24       0.0241
    191 H          29.4431    4.6535    1.8587 H      24  UNL24       0.0241
    192 H          29.4431    4.6535    0.0839 H      24  UNL24       0.0241
    193 CL         32.5254   14.4875    1.6120 Cl     25  UNL25      -0.1257
    194 C          30.9829   13.6058    1.6120 C.3    25  UNL25       0.0198
    195 C          29.8184   14.5736    1.6120 C.3    25  UNL25      -0.0517
    196 H          30.9583   12.9687    0.7234 H      25  UNL25       0.0427
    197 H          30.9583   12.9687    2.5005 H      25  UNL25       0.0427
    198 H          28.8715   14.0243    1.6120 H      25  UNL25       0.0241
    199 H          29.8357   15.2148    2.4994 H      25  UNL25       0.0241
    200 H          29.8357   15.2148    0.7246 H      25  UNL25       0.0241
@<TRIPOS>BOND
     1     1     2    1
     2     2     3    1
     3     2     4    1
     4     2     5    1
     5     3     6    1
     6     3     7    1
     7     3     8    1
     8     9    10    1
     9    10    11    1
    10    10    12    1
    11    10    13    1
    12    11    14    1
    13    11    15    1
    14    11    16    1
    15    17    18    1
    16    18    19    1
    17    18    20    1
    18    18    21    1
    19    19    22    1
    20    19    23    1
    21    19    24    1
    22    25    26    1
    23    26    27    1
    24    26    28    1
    25    26    29    1
    26    27    30    1
    27    27    31    1
    28    27    32    1
    29    33    34    1
    30    34    35    1
    31    34    36    1
    32    34    37    1
    33    35    38    1
    34    35    39    1
    35    35    40    1
    36    41    42    1
    37    42    43    1
    38    42    44    1
    39    42    45    1
    40    43    46    1
    41    43    47    1
    42    43    48    1
    43    49    50    1
    44    50    51    1
    45    50    52    1
    46    50    53    1
    47    51    54    1
    48    51    55    1
    49    51    56    1
    50    57    58    1
    51    58    59    1
    52    58    60    1
    53    58    61    1
    54    59    62    1
    55    59    63    1
    56    59    64    1
    57    65    66    1
    58    66    67    1
    59    66    68    1
    60    66    69    1
    61    67    70    1
    62    67    71    1
    63    67    72    1
    64    73    74    1
    65    74    75    1
    66    74    76    1
    67    74    77    1
    68    75    78    1
    69    75    79    1
    70    75    80    1
    71    81    82    1
    72    82    83    1
    73    82    84    1
    74    82    85    1
    75    83    86    1
    76    83    87    1
    77    83    88    1
    78    89    90    1
    79    90    91    1
    80    90    92    1
    81    90    93    1
    82    91    94    1
    83    91    95    1
    84    91    96    1
    85    97    98    1
    86    98    99    1
    87    98   100    1
    88    98   101    1
    89    99   102    1
    90    99   103    1
    91    99   104    1
    92   105   106    1
    93   106   107    1
    94   106   108    1
    95   106   109    1
    96   107   110    1
    97   107   111    1
    98   107   112    1
    99   113   114    1
   100   114   115    1
   101   114   116    1
   102   114   117    1
   103   115   118    1
   104   115   119    1
   105   115   120    1
   106   121   122    1
   107   122   123    1
   108   122   124    1
   109   122   125    1
   110   123   126    1
   111   123   127    1
   112   123   128    1
   113   129   130    1
   114   130   131    1
   115   130   132    1
   116   130   133    1
   117   131   134    1
   118   131   135    1
   119   131   136    1
   120   137   138    1
   121   138   139    1
   122   138   140    1
   123   138   141    1
   124   139   142    1
   125   139   143    1
   126   139   144    1
   127   145   146    1
   128   146   147    1
   129   146   148    1
   130   146   149    1
   131   147   150    1
   132   147   151    1
   133   147   152    1
   134   153   154    1
   135   154   155    1
   136   154   156    1
   137   154   157    1
   138   155   158    1
   139   155   159    1
   140   155   160    1
   141   161   162    1
   142   162   163    1
   143   162   164    1
   144   162   165    1
   145   163   166    1
   146   163   167    1
   147   163   168    1
   148   169   170    1
   149   170   171    1
   150   170   172    1
   151   170   173    1
   152   171   174    1
   153   171   175    1
   154   171   176    1
   155   177   178    1
   156   178   179    1
   157   178   180    1
   158   178   181    1
   159   179   182    1
   160   179   183    1
   161   179   184    1
   162   185   186    1
   163   186   187    1
   164   186   188    1
   165   186   189    1
   166   187   190    1
   167   187   191    1
   168   187   192    1
   169   193   194    1
   170   194   195    1
   171   194   196    1
   172   194   197    1
   173   195   198    1
   174   195   199    1
   175   195   200    1
