@<TRIPOS>MOLECULE
*****
 480 420 0 0 0
SMALL
GASTEIGER

@<TRIPOS>ATOM
      1 CL          0.8623    1.3491   17.4266 Cl      1  UNL1       -0.1257
      2 C          -0.1981   -0.0123   17.0037 C.3     1  UNL1        0.0198
      3 C          -1.6518    0.3712   17.1842 C.3     1  UNL1       -0.0517
      4 H           0.0046   -0.2879   15.9649 H       1  UNL1        0.0427
      5 H           0.0635   -0.8566   17.6475 H       1  UNL1        0.0427
      6 H          -2.2995   -0.4714   16.9222 H       1  UNL1        0.0241
      7 H          -1.8628    0.6480   18.2224 H       1  UNL1        0.0241
      8 H          -1.9217    1.2159   16.5420 H       1  UNL1        0.0241
      9 CL          0.6639    5.1997    1.1240 Cl      2  UNL2       -0.1257
     10 C          -0.8738    4.3097    1.1240 C.3     2  UNL2        0.0198
     11 C          -2.0435    5.2712    1.1240 C.3     2  UNL2       -0.0517
     12 H          -0.8950    3.6725    0.2354 H       2  UNL2        0.0427
     13 H          -0.8950    3.6725    2.0125 H       2  UNL2        0.0427
     14 H          -2.9874    4.7169    1.1240 H       2  UNL2        0.0241
     15 H          -2.0296    5.9125    2.0114 H       2  UNL2        0.0241
     16 H          -2.0296    5.9125    0.2366 H       2  UNL2        0.0241
     17 CL          0.6678    5.1980    5.1011 Cl      3  UNL3       -0.1257
     18 C          -0.8795    4.3247    5.1011 C.3     3  UNL3        0.0198
     19 C          -2.0387    5.2988    5.1011 C.3     3  UNL3       -0.0517
     20 H          -0.9075    3.6877    4.2125 H       3  UNL3        0.0427
     21 H          -0.9075    3.6877    5.9896 H       3  UNL3        0.0427
     22 H          -2.9886    4.7546    5.1011 H       3  UNL3        0.0241
     23 H          -2.0179    5.9399    5.9885 H       3  UNL3        0.0241
     24 H          -2.0179    5.9399    4.2137 H       3  UNL3        0.0241
     25 CL          0.7791    4.8244    9.0359 Cl      4  UNL4       -0.1257
     26 C          -0.7948    4.0021    9.0964 C.3     4  UNL4        0.0198
     27 C          -1.9218    5.0132    9.1067 C.3     4  UNL4       -0.0517
     28 H          -0.8677    3.3482    8.2228 H       4  UNL4        0.0427
     29 H          -0.8186    3.3849    9.9988 H       4  UNL4        0.0427
     30 H          -2.8882    4.5004    9.1439 H       4  UNL4        0.0241
     31 H          -1.8560    5.6715    9.9792 H       4  UNL4        0.0241
     32 H          -1.9050    5.6349    8.2055 H       4  UNL4        0.0241
     33 CL          0.7644    5.6320   13.6129 Cl      5  UNL5       -0.1257
     34 C          -0.2578    4.4061   12.8325 C.3     5  UNL5        0.0198
     35 C          -1.7112    4.6128   13.2033 C.3     5  UNL5       -0.0517
     36 H          -0.1174    4.4883   11.7510 H       5  UNL5        0.0427
     37 H           0.0894    3.4211   13.1568 H       5  UNL5        0.0427
     38 H          -2.3353    3.8547   12.7196 H       5  UNL5        0.0241
     39 H          -1.8599    4.5312   14.2851 H       5  UNL5        0.0241
     40 H          -2.0665    5.5971   12.8811 H       5  UNL5        0.0241
     41 CL          0.0456    6.3610   16.9555 Cl      6  UNL6       -0.1257
     42 C          -0.5104    4.6759   16.8647 C.3     6  UNL6        0.0198
     43 C          -1.9862    4.5857   17.1910 C.3     6  UNL6       -0.0517
     44 H          -0.3132    4.3095   15.8533 H       6  UNL6        0.0427
     45 H           0.0804    4.0870   17.5719 H       6  UNL6        0.0427
     46 H          -2.3222    3.5454   17.1333 H       6  UNL6        0.0241
     47 H          -2.1916    4.9502   18.2029 H       6  UNL6        0.0241
     48 H          -2.5847    5.1724   16.4865 H       6  UNL6        0.0241
     49 CL          0.4638   10.6998   12.9846 Cl      7  UNL7       -0.1257
     50 C          -0.2997    9.0976   13.0668 C.3     7  UNL7        0.0198
     51 C          -1.8082    9.2271   13.0517 C.3     7  UNL7       -0.0517
     52 H           0.0485    8.5135   12.2102 H       7  UNL7        0.0427
     53 H           0.0389    8.6090   13.9847 H       7  UNL7        0.0427
     54 H          -2.2723    8.2370   13.1025 H       7  UNL7        0.0241
     55 H          -2.1647    9.8103   13.9071 H       7  UNL7        0.0241
     56 H          -2.1551    9.7149   12.1348 H       7  UNL7        0.0241
     57 CL          0.8196   13.7373    1.1963 Cl      8  UNL8       -0.1257
     58 C          -0.7538   12.9148    1.1279 C.3     8  UNL8        0.0198
     59 C          -1.8809   13.9258    1.1137 C.3     8  UNL8       -0.0517
     60 H          -0.7735   12.2986    0.2246 H       8  UNL8        0.0427
     61 H          -0.8305   12.2600    2.0003 H       8  UNL8        0.0427
     62 H          -2.8471   13.4129    1.0715 H       8  UNL8        0.0241
     63 H          -1.8683   14.5465    2.0156 H       8  UNL8        0.0241
     64 H          -1.8113   14.5850    0.2422 H       8  UNL8        0.0241
     65 CL          0.7853   13.8747    4.8765 Cl      9  UNL9       -0.1257
     66 C          -0.7182   12.9495    5.0769 C.3     9  UNL9        0.0198
     67 C          -1.9098   13.8814    5.1443 C.3     9  UNL9       -0.0517
     68 H          -0.8085   12.2645    4.2291 H       9  UNL9        0.0427
     69 H          -0.6329   12.3614    5.9949 H       9  UNL9        0.0427
     70 H          -2.8325   13.3055    5.2677 H       9  UNL9        0.0241
     71 H          -1.8270   14.5703    5.9914 H       9  UNL9        0.0241
     72 H          -2.0024   14.4735    4.2279 H       9  UNL9        0.0241
     73 CL          0.0036   14.7978    8.1604 Cl     10  UNL10      -0.1257
     74 C          -0.7582   13.5165    9.1271 C.3    10  UNL10       0.0198
     75 C          -2.2076   13.8534    9.4069 C.3    10  UNL10      -0.0517
     76 H          -0.6781   12.5795    8.5687 H      10  UNL10       0.0427
     77 H          -0.1955   13.4175   10.0596 H      10  UNL10       0.0427
     78 H          -2.6709   13.0604   10.0026 H      10  UNL10       0.0241
     79 H          -2.2960   14.7903    9.9667 H      10  UNL10       0.0241
     80 H          -2.7780   13.9534    8.4776 H      10  UNL10       0.0241
     81 CL          0.0504   14.9557   17.9852 Cl     11  UNL11      -0.1257
     82 C          -0.5538   13.5650   17.0591 C.3    11  UNL11       0.0198
     83 C          -1.9883   13.7945   16.6322 C.3    11  UNL11      -0.0517
     84 H           0.0941   13.4324   16.1880 H      11  UNL11       0.0427
     85 H          -0.4746   12.6773   17.6928 H      11  UNL11       0.0427
     86 H          -2.3544   12.9346   16.0623 H      11  UNL11       0.0241
     87 H          -2.6436   13.9276   17.4992 H      11  UNL11       0.0241
     88 H          -2.0757   14.6817   15.9964 H      11  UNL11       0.0241
     89 CL          0.9435   18.5828    1.1932 Cl     12  UNL12      -0.1257
     90 C          -0.5829   17.6748    1.1426 C.3    12  UNL12       0.0198
     91 C          -1.7613   18.6220    1.0598 C.3    12  UNL12      -0.0517
     92 H          -0.5538   17.0141    0.2715 H      12  UNL12       0.0427
     93 H          -0.6406   17.0611    2.0459 H      12  UNL12       0.0427
     94 H          -2.6982   18.0565    1.0290 H      12  UNL12       0.0241
     95 H          -1.7977   19.2866    1.9292 H      12  UNL12       0.0241
     96 H          -1.7110   19.2397    0.1571 H      12  UNL12       0.0241
     97 CL         -0.0206   19.4013    9.8778 Cl     13  UNL13      -0.1257
     98 C          -0.5183   17.8430    9.1846 C.3    13  UNL13       0.0198
     99 C          -2.0136   17.8211    8.9471 C.3    13  UNL13      -0.0517
    100 H           0.0259   17.7017    8.2465 H      13  UNL13       0.0427
    101 H          -0.2244   17.0539    9.8823 H      13  UNL13       0.0427
    102 H          -2.3136   16.8588    8.5201 H      13  UNL13       0.0241
    103 H          -2.5657   17.9614    9.8822 H      13  UNL13       0.0241
    104 H          -2.3157   18.6083    8.2485 H      13  UNL13       0.0241
    105 CL          0.8180   18.5874   13.1838 Cl     14  UNL14      -0.1257
    106 C          -0.7096   17.6804   13.1632 C.3    14  UNL14       0.0198
    107 C          -1.8798   18.6165   12.9458 C.3    14  UNL14      -0.0517
    108 H          -0.6512   16.9391   12.3612 H      14  UNL14       0.0427
    109 H          -0.8039   17.1563   14.1184 H      14  UNL14       0.0427
    110 H          -2.8174   18.0517   12.9341 H      14  UNL14       0.0241
    111 H          -1.9454   19.3616   13.7454 H      14  UNL14       0.0241
    112 H          -1.7929   19.1446   11.9905 H      14  UNL14       0.0241
    113 CL          0.8640   22.7411    1.1031 Cl     15  UNL15      -0.1257
    114 C          -0.6640   21.8346    1.0989 C.3    15  UNL15       0.0198
    115 C          -1.8436   22.7825    1.1486 C.3    15  UNL15      -0.0517
    116 H          -0.6929   21.2260    0.1907 H      15  UNL15       0.0427
    117 H          -0.6639   21.1690    1.9666 H      15  UNL15       0.0427
    118 H          -2.7815   22.2180    1.1458 H      15  UNL15       0.0241
    119 H          -1.8221   23.3951    2.0559 H      15  UNL15       0.0241
    120 H          -1.8511   23.4521    0.2823 H      15  UNL15       0.0241
    121 CL          0.8241   22.4016    5.1967 Cl     16  UNL16      -0.1257
    122 C          -0.7646   21.6138    5.0871 C.3    16  UNL16       0.0198
    123 C          -1.8716   22.6467    5.1047 C.3    16  UNL16      -0.0517
    124 H          -0.7902   21.0330    4.1607 H      16  UNL16       0.0427
    125 H          -0.8602   20.9277    5.9333 H      16  UNL16       0.0427
    126 H          -2.8473   22.1551    5.0369 H      16  UNL16       0.0241
    127 H          -1.8530   23.2321    6.0299 H      16  UNL16       0.0241
    128 H          -1.7831   23.3373    4.2596 H      16  UNL16       0.0241
    129 CL         -0.0765   24.4174    9.0588 Cl     17  UNL17      -0.1257
    130 C          -0.4902   22.6898    9.0917 C.3    17  UNL17       0.0198
    131 C          -1.9928   22.5041    9.1088 C.3    17  UNL17      -0.0517
    132 H          -0.0510   22.2207    8.2067 H      17  UNL17       0.0427
    133 H          -0.0345   22.2506    9.9835 H      17  UNL17       0.0427
    134 H          -2.2409   21.4381    9.1289 H      17  UNL17       0.0241
    135 H          -2.4400   22.9707    9.9926 H      17  UNL17       0.0241
    136 H          -2.4565   22.9409    8.2182 H      17  UNL17       0.0241
    137 CL          0.7935   22.6766   13.0346 Cl     18  UNL18      -0.1257
    138 C          -0.7619   21.8184   13.0675 C.3    18  UNL18       0.0198
    139 C          -1.9119   22.8032   13.0463 C.3    18  UNL18      -0.0517
    140 H          -0.8010   21.1571   12.1973 H      18  UNL18       0.0427
    141 H          -0.7910   21.2070   13.9737 H      18  UNL18       0.0427
    142 H          -2.8669   22.2684   13.0667 H      18  UNL18       0.0241
    143 H          -1.8801   23.4687   13.9152 H      18  UNL18       0.0241
    144 H          -1.8901   23.4189   12.1411 H      18  UNL18       0.0241
    145 CL          0.7891   23.0928   17.2218 Cl     19  UNL19      -0.1257
    146 C          -0.7185   22.1681   17.0523 C.3    19  UNL19       0.0198
    147 C          -1.9098   23.1011   16.9965 C.3    19  UNL19      -0.0517
    148 H          -0.6484   21.5728   16.1375 H      19  UNL19       0.0427
    149 H          -0.7963   21.4898   17.9065 H      19  UNL19       0.0427
    150 H          -2.8351   22.5254   16.8921 H      19  UNL19       0.0241
    151 H          -1.9873   23.7003   17.9096 H      19  UNL19       0.0241
    152 H          -1.8396   23.7833   16.1429 H      19  UNL19       0.0241
    153 CL          1.3051   27.5100    1.0510 Cl     20  UNL20      -0.1257
    154 C          -0.2034   26.5814    1.1882 C.3    20  UNL20       0.0198
    155 C          -1.4032   27.4979    1.0730 C.3    20  UNL20      -0.0517
    156 H          -0.2108   25.8303    0.3933 H      20  UNL20       0.0427
    157 H          -0.1976   26.0689    2.1543 H      20  UNL20       0.0427
    158 H          -2.3289   26.9198    1.1583 H      20  UNL20       0.0241
    159 H          -1.4032   28.2526    1.8663 H      20  UNL20       0.0241
    160 H          -1.4164   28.0143    0.1076 H      20  UNL20       0.0241
    161 CL          1.2997   27.9162    5.1437 Cl     21  UNL21      -0.1257
    162 C          -0.0557   26.7684    5.1916 C.3    21  UNL21       0.0198
    163 C          -1.3726   27.4947    5.0154 C.3    21  UNL21      -0.0517
    164 H           0.0938   26.0362    4.3931 H      21  UNL21       0.0427
    165 H          -0.0244   26.2491    6.1535 H      21  UNL21       0.0427
    166 H          -2.2032   26.7823    5.0458 H      21  UNL21       0.0241
    167 H          -1.5298   28.2295    5.8118 H      21  UNL21       0.0241
    168 H          -1.4119   28.0168    4.0538 H      21  UNL21       0.0241
    169 CL          5.2725    0.6987    1.1505 Cl     22  UNL22      -0.1257
    170 C           3.7746   -0.2567    1.1408 C.3    22  UNL22       0.0198
    171 C           2.5649    0.6533    1.1063 C.3    22  UNL22      -0.0517
    172 H           3.7955   -0.9082    0.2627 H      22  UNL22       0.0427
    173 H           3.7660   -0.8801    2.0393 H      22  UNL22       0.0427
    174 H           1.6457    0.0588    1.1005 H      22  UNL22       0.0241
    175 H           2.5365    1.3086    1.9831 H      22  UNL22       0.0241
    176 H           2.5659    1.2805    0.2088 H      22  UNL22       0.0241
    177 CL          5.2316    0.6980    5.0650 Cl     23  UNL23      -0.1257
    178 C           3.7339   -0.2567    5.1117 C.3    23  UNL23       0.0198
    179 C           2.5238    0.6533    5.0950 C.3    23  UNL23      -0.0517
    180 H           3.7309   -0.9226    4.2442 H      23  UNL23       0.0427
    181 H           3.7496   -0.8651    6.0203 H      23  UNL23       0.0427
    182 H           1.6048    0.0593    5.1239 H      23  UNL23       0.0241
    183 H           2.5193    1.3230    5.9612 H      23  UNL23       0.0241
    184 H           2.5006    1.2655    4.1875 H      23  UNL23       0.0241
    185 CL          5.3023    0.8188    9.0896 Cl     24  UNL24      -0.1257
    186 C           3.7843   -0.1044    9.0974 C.3    24  UNL24       0.0198
    187 C           2.5941    0.8309    9.0598 C.3    24  UNL24      -0.0517
    188 H           3.7866   -0.7651    8.2260 H      24  UNL24       0.0427
    189 H           3.7673   -0.7182   10.0023 H      24  UNL24       0.0427
    190 H           1.6625    0.2561    9.0648 H      24  UNL24       0.0241
    191 H           2.5844    1.4956    9.9299 H      24  UNL24       0.0241
    192 H           2.6037    1.4487    8.1558 H      24  UNL24       0.0241
    193 CL          5.3335    0.7492   12.9635 Cl     25  UNL25      -0.1257
    194 C           3.7878   -0.1215   13.0591 C.3    25  UNL25       0.0198
    195 C           2.6289    0.8530   13.0607 C.3    25  UNL25      -0.0517
    196 H           3.7267   -0.7961   12.2003 H      25  UNL25       0.0427
    197 H           3.7934   -0.7197   13.9745 H      25  UNL25       0.0427
    198 H           1.6799    0.3105   13.1197 H      25  UNL25       0.0241
    199 H           2.6827    1.5316   13.9183 H      25  UNL25       0.0241
    200 H           2.6161    1.4554   12.1464 H      25  UNL25       0.0241
    201 CL          6.9143    1.0031   18.5058 Cl     26  UNL26      -0.1257
    202 C           6.4740    0.0054   17.1032 C.3    26  UNL26       0.0198
    203 C           4.9881    0.1022   16.8285 C.3    26  UNL26      -0.0517
    204 H           7.0515    0.3576   16.2438 H      26  UNL26       0.0427
    205 H           6.7623   -1.0271   17.3196 H      26  UNL26       0.0427
    206 H           4.7235   -0.5144   15.9636 H      26  UNL26       0.0241
    207 H           4.4028   -0.2494   17.6845 H      26  UNL26       0.0241
    208 H           4.6916    1.1334   16.6101 H      26  UNL26       0.0241
    209 CL          7.2182    5.4143    1.2269 Cl     27  UNL27      -0.1257
    210 C           5.8536    4.2805    1.1318 C.3    27  UNL27       0.0198
    211 C           4.5396    5.0324    1.1072 C.3    27  UNL27      -0.0517
    212 H           5.9752    3.6813    0.2250 H      27  UNL27       0.0427
    213 H           5.9050    3.6169    1.9995 H      27  UNL27       0.0427
    214 H           3.7033    4.3285    1.0486 H      27  UNL27       0.0241
    215 H           4.4102    5.6344    2.0126 H      27  UNL27       0.0241
    216 H           4.4802    5.6988    0.2403 H      27  UNL27       0.0241
    217 CL          7.3148    4.8911    5.0981 Cl     28  UNL28      -0.1257
    218 C           5.7673    4.0181    5.1070 C.3    28  UNL28       0.0198
    219 C           4.6083    4.9924    5.0961 C.3    28  UNL28      -0.0517
    220 H           5.7394    3.3716    4.2254 H      28  UNL28       0.0427
    221 H           5.7388    3.3909    6.0024 H      28  UNL28       0.0427
    222 H           3.6583    4.4485    5.1016 H      28  UNL28       0.0241
    223 H           4.6289    5.6431    5.9765 H      28  UNL28       0.0241
    224 H           4.6295    5.6239    4.2018 H      28  UNL28       0.0241
    225 CL          7.3191    5.0011    9.1606 Cl     29  UNL29      -0.1257
    226 C           5.7582    4.1531    9.1238 C.3    29  UNL29       0.0198
    227 C           4.6161    5.1458    9.0700 C.3    29  UNL29      -0.0517
    228 H           5.7484    3.5020    8.2452 H      29  UNL29       0.0427
    229 H           5.6906    3.5316   10.0211 H      29  UNL29       0.0427
    230 H           3.6577    4.6172    9.0476 H      29  UNL29       0.0241
    231 H           4.6187    5.8012    9.9472 H      29  UNL29       0.0241
    232 H           4.6765    5.7716    8.1736 H      29  UNL29       0.0241
    233 CL          6.9772    5.7616   13.0502 Cl     30  UNL30      -0.1257
    234 C           5.8406    4.3960   13.0572 C.3    30  UNL30       0.0198
    235 C           4.4111    4.8952   13.0541 C.3    30  UNL30      -0.0517
    236 H           6.0407    3.7858   12.1719 H      30  UNL30       0.0427
    237 H           6.0402    3.7953   13.9490 H      30  UNL30       0.0427
    238 H           3.7162    4.0494   13.0584 H      30  UNL30       0.0241
    239 H           4.2027    5.5067   13.9382 H      30  UNL30       0.0241
    240 H           4.2033    5.4972   12.1634 H      30  UNL30       0.0241
    241 CL          6.9214    5.7026   17.1494 Cl     31  UNL31      -0.1257
    242 C           5.8548    4.2852   17.0496 C.3    31  UNL31       0.0198
    243 C           4.4036    4.7151   17.0057 C.3    31  UNL31      -0.0517
    244 H           6.1212    3.7251   16.1489 H      31  UNL31       0.0427
    245 H           6.0471    3.6559   17.9231 H      31  UNL31       0.0427
    246 H           3.7520    3.8376   16.9443 H      31  UNL31       0.0241
    247 H           4.1289    5.2762   17.9050 H      31  UNL31       0.0241
    248 H           4.2030    5.3453   16.1331 H      31  UNL31       0.0241
    249 CL          5.1878    8.2869    1.2061 Cl     32  UNL32      -0.1257
    250 C           3.4252    8.2037    1.4138 C.3    32  UNL32       0.0198
    251 C           2.7657    9.4467    0.8547 C.3    32  UNL32      -0.0517
    252 H           3.0664    7.3084    0.8982 H      32  UNL32       0.0427
    253 H           3.2158    8.1001    2.4822 H      32  UNL32       0.0427
    254 H           1.6804    9.3892    0.9857 H      32  UNL32       0.0241
    255 H           3.1194   10.3477    1.3666 H      32  UNL32       0.0241
    256 H           2.9703    9.5570   -0.2153 H      32  UNL32       0.0241
    257 CL          5.0115    9.1030    4.6087 Cl     33  UNL33      -0.1257
    258 C           3.6764   10.0674    5.2752 C.3    33  UNL33       0.0198
    259 C           2.3519    9.6056    4.7049 C.3    33  UNL33      -0.0517
    260 H           3.6904    9.9568    6.3631 H      33  UNL33       0.0427
    261 H           3.8612   11.1164    5.0274 H      33  UNL33       0.0427
    262 H           1.5338   10.2035    5.1193 H      33  UNL33       0.0241
    263 H           2.3298    9.7140    3.6155 H      33  UNL33       0.0241
    264 H           2.1592    8.5559    4.9496 H      33  UNL33       0.0241
    265 CL          5.1140    9.1661    8.7019 Cl     34  UNL34      -0.1257
    266 C           3.5242    8.4247    8.9840 C.3    34  UNL34       0.0198
    267 C           2.4795    9.4905    9.2398 C.3    34  UNL34      -0.0517
    268 H           3.2666    7.8324    8.1014 H      34  UNL34       0.0427
    269 H           3.6124    7.7534    9.8428 H      34  UNL34       0.0427
    270 H           1.5028    9.0274    9.4128 H      34  UNL34       0.0241
    271 H           2.7301   10.0876   10.1228 H      34  UNL34       0.0241
    272 H           2.3847   10.1665    8.3837 H      34  UNL34       0.0241
    273 CL          7.0372   10.2062   12.5982 Cl     35  UNL35      -0.1257
    274 C           5.8828    8.9377   13.0618 C.3    35  UNL35       0.0198
    275 C           4.5305    9.5408   13.3786 C.3    35  UNL35      -0.0517
    276 H           5.8074    8.2301   12.2313 H      35  UNL35       0.0427
    277 H           6.2880    8.4143   13.9322 H      35  UNL35       0.0427
    278 H           3.8242    8.7544   13.6633 H      35  UNL35       0.0241
    279 H           4.5977   10.2502   14.2099 H      35  UNL35       0.0241
    280 H           4.1176   10.0663   12.5112 H      35  UNL35       0.0241
    281 CL          5.2223    8.6422   16.5630 Cl     36  UNL36      -0.1257
    282 C           3.7336    9.2044   17.3532 C.3    36  UNL36       0.0198
    283 C           2.5249    8.8776   16.5019 C.3    36  UNL36      -0.0517
    284 H           3.6646    8.7160   18.3294 H      36  UNL36       0.0427
    285 H           3.8200   10.2837   17.5069 H      36  UNL36       0.0427
    286 H           1.6115    9.2263   16.9941 H      36  UNL36       0.0241
    287 H           2.5864    9.3637   15.5227 H      36  UNL36       0.0241
    288 H           2.4312    7.7981   16.3441 H      36  UNL36       0.0241
    289 CL          7.3144   13.7921    1.0263 Cl     37  UNL37      -0.1257
    290 C           5.7644   12.9282    1.1163 C.3    37  UNL37       0.0198
    291 C           4.6109   13.9088    1.1403 C.3    37  UNL37      -0.0517
    292 H           5.6949   12.2682    0.2470 H      37  UNL37       0.0427
    293 H           5.7718   12.3151    2.0218 H      37  UNL37       0.0427
    294 H           3.6594   13.3705    1.1958 H      37  UNL37       0.0241
    295 H           4.6731   14.5730    2.0086 H      37  UNL37       0.0241
    296 H           4.5964   14.5261    0.2360 H      37  UNL37       0.0241
    297 CL          7.3494   14.1332    5.1144 Cl     38  UNL38      -0.1257
    298 C           5.7615   13.3361    5.1211 C.3    38  UNL38       0.0198
    299 C           4.6511   14.3649    5.0818 C.3    38  UNL38      -0.0517
    300 H           5.7110   12.6769    4.2499 H      38  UNL38       0.0427
    301 H           5.6938   12.7261    6.0262 H      38  UNL38       0.0427
    302 H           3.6759   13.8676    5.0861 H      38  UNL38       0.0241
    303 H           4.6945   15.0286    5.9516 H      38  UNL38       0.0241
    304 H           4.7117   14.9794    4.1776 H      38  UNL38       0.0241
    305 CL          7.0164   14.5227    8.5917 Cl     39  UNL39      -0.1257
    306 C           5.8868   13.2316    9.0537 C.3    39  UNL39       0.0198
    307 C           4.5288   13.8101    9.3913 C.3    39  UNL39      -0.0517
    308 H           5.8134   12.5318    8.2164 H      39  UNL39       0.0427
    309 H           6.3094   12.7052    9.9141 H      39  UNL39       0.0427
    310 H           3.8379   13.0099    9.6750 H      39  UNL39       0.0241
    311 H           4.5940   14.5116   10.2296 H      39  UNL39       0.0241
    312 H           4.0986   14.3384    8.5341 H      39  UNL39       0.0241
    313 CL          4.3039   14.0163   12.9795 Cl     40  UNL40      -0.1257
    314 C           2.7302   13.2120   13.1627 C.3    40  UNL40       0.0198
    315 C           1.6019   14.2024   12.9656 C.3    40  UNL40      -0.0517
    316 H           2.6743   12.4076   12.4239 H      40  UNL40       0.0427
    317 H           2.6905   12.7721   14.1631 H      40  UNL40       0.0427
    318 H           0.6356   13.7008   13.0798 H      40  UNL40       0.0241
    319 H           1.6507   15.0109   13.7024 H      40  UNL40       0.0241
    320 H           1.6346   14.6468   11.9654 H      40  UNL40       0.0241
    321 CL          7.4212   14.3265   16.7672 Cl     41  UNL41      -0.1257
    322 C           5.9114   13.4250   17.0212 C.3    41  UNL41       0.0198
    323 C           4.7130   14.3072   16.7413 C.3    41  UNL41      -0.0517
    324 H           5.9196   12.5582   16.3543 H      41  UNL41       0.0427
    325 H           5.8996   13.0708   18.0558 H      41  UNL41       0.0427
    326 H           3.7864   13.7461   16.8995 H      41  UNL41       0.0241
    327 H           4.6973   15.1773   17.4058 H      41  UNL41       0.0241
    328 H           4.7172   14.6653   15.7066 H      41  UNL41       0.0241
    329 CL          7.4389   18.5256    1.0999 Cl     42  UNL42      -0.1257
    330 C           5.8872   17.6604    1.1213 C.3    42  UNL42       0.0198
    331 C           4.7331   18.6404    1.1288 C.3    42  UNL42      -0.0517
    332 H           5.8462   17.0190    0.2364 H      42  UNL42       0.0427
    333 H           5.8656   17.0282    2.0133 H      42  UNL42       0.0427
    334 H           3.7805   18.1012    1.1420 H      42  UNL42       0.0241
    335 H           4.7668   19.2860    2.0125 H      42  UNL42       0.0241
    336 H           4.7475   19.2768    0.2379 H      42  UNL42       0.0241
    337 CL          5.1081   18.5351    4.7378 Cl     43  UNL43      -0.1257
    338 C           3.5571   17.6684    4.7278 C.3    43  UNL43       0.0198
    339 C           2.4091   18.6323    4.9418 C.3    43  UNL43      -0.0517
    340 H           3.4616   17.1586    3.7649 H      43  UNL43       0.0427
    341 H           3.5857   16.9162    5.5210 H      43  UNL43       0.0427
    342 H           1.4569   18.0923    4.9345 H      43  UNL43       0.0241
    343 H           2.4973   19.1464    5.9046 H      43  UNL43       0.0241
    344 H           2.3735   19.3884    4.1507 H      43  UNL43       0.0241
    345 CL          7.3128   18.5679    9.0893 Cl     44  UNL44      -0.1257
    346 C           5.7703   17.6862    9.0810 C.3    44  UNL44       0.0198
    347 C           4.6058   18.6540    9.0747 C.3    44  UNL44      -0.0517
    348 H           5.7505   17.0491    8.1922 H      44  UNL44       0.0427
    349 H           5.7409   17.0491    9.9693 H      44  UNL44       0.0427
    350 H           3.6589   18.1047    9.0696 H      44  UNL44       0.0241
    351 H           4.6183   19.2952    9.9622 H      44  UNL44       0.0241
    352 H           4.6279   19.2952    8.1874 H      44  UNL44       0.0241
    353 CL          7.3332   18.5474   13.0664 Cl     45  UNL45      -0.1257
    354 C           5.7907   17.6657   13.0581 C.3    45  UNL45       0.0198
    355 C           4.6262   18.6335   13.0518 C.3    45  UNL45      -0.0517
    356 H           5.7709   17.0286   12.1693 H      45  UNL45       0.0427
    357 H           5.7613   17.0286   13.9464 H      45  UNL45       0.0427
    358 H           3.6794   18.0842   13.0467 H      45  UNL45       0.0241
    359 H           4.6388   19.2747   13.9393 H      45  UNL45       0.0241
    360 H           4.6483   19.2747   12.1645 H      45  UNL45       0.0241
    361 CL          4.5477   18.7989   17.8830 Cl     46  UNL46      -0.1257
    362 C           3.1622   18.7119   16.7741 C.3    46  UNL46       0.0198
    363 C           2.0024   17.9921   17.4294 C.3    46  UNL46      -0.0517
    364 H           2.8819   19.7338   16.5034 H      46  UNL46       0.0427
    365 H           3.4851   18.1863   15.8711 H      46  UNL46       0.0427
    366 H           1.1524   17.9419   16.7414 H      46  UNL46       0.0241
    367 H           2.2752   16.9675   17.7029 H      46  UNL46       0.0241
    368 H           1.6728   18.5129   18.3344 H      46  UNL46       0.0241
    369 CL          7.3068   22.7817    1.1203 Cl     47  UNL47      -0.1257
    370 C           5.7788   21.8751    1.1297 C.3    47  UNL47       0.0198
    371 C           4.5987   22.8238    1.1193 C.3    47  UNL47      -0.0517
    372 H           5.7647   21.2282    0.2480 H      47  UNL47       0.0427
    373 H           5.7643   21.2473    2.0250 H      47  UNL47       0.0427
    374 H           3.6608   22.2592    1.1251 H      47  UNL47       0.0241
    375 H           4.6054   23.4747    1.9997 H      47  UNL47       0.0241
    376 H           4.6058   23.4556    0.2250 H      47  UNL47       0.0241
    377 CL          7.2898   22.8781    5.0344 Cl     48  UNL48      -0.1257
    378 C           5.7979   21.9154    5.1003 C.3    48  UNL48       0.0198
    379 C           4.5830   22.8191    5.1082 C.3    48  UNL48      -0.0517
    380 H           5.7842   21.2540    4.2294 H      48  UNL48       0.0427
    381 H           5.8316   21.3022    6.0052 H      48  UNL48       0.0427
    382 H           3.6677   22.2201    5.1489 H      48  UNL48       0.0241
    383 H           4.5892   23.4842    5.9780 H      48  UNL48       0.0241
    384 H           4.5419   23.4360    4.2045 H      48  UNL48       0.0241
    385 CL          7.3128   22.7075    9.0895 Cl     49  UNL49      -0.1257
    386 C           5.7702   21.8258    9.0931 C.3    49  UNL49       0.0198
    387 C           4.6058   22.7936    9.1046 C.3    49  UNL49      -0.0517
    388 H           5.7408   21.1935    8.2012 H      49  UNL49       0.0427
    389 H           5.7504   21.1839    9.9783 H      49  UNL49       0.0427
    390 H           3.6589   22.2444    9.1067 H      49  UNL49       0.0241
    391 H           4.6279   23.4301    9.9953 H      49  UNL49       0.0241
    392 H           4.6184   23.4396    8.2205 H      49  UNL49       0.0241
    393 CL          7.2920   22.7077   13.0169 Cl     50  UNL50      -0.1257
    394 C           5.7496   21.8259   13.0358 C.3    50  UNL50       0.0198
    395 C           4.5856   22.7935   13.0765 C.3    50  UNL50      -0.0517
    396 H           5.7057   21.2033   12.1378 H      50  UNL50       0.0427
    397 H           5.7439   21.1746   13.9143 H      50  UNL50       0.0427
    398 H           3.6388   22.2442   13.0880 H      50  UNL50       0.0241
    399 H           4.6222   23.4203   13.9736 H      50  UNL50       0.0241
    400 H           4.5840   23.4490   12.1994 H      50  UNL50       0.0241
    401 CL          7.3287   22.9022   17.0477 Cl     51  UNL51      -0.1257
    402 C           5.7413   22.1060   16.9940 C.3    51  UNL51       0.0198
    403 C           4.6304   23.1344   17.0247 C.3    51  UNL51      -0.0517
    404 H           5.6935   21.5100   16.0783 H      51  UNL51       0.0427
    405 H           5.6717   21.4335   17.8536 H      51  UNL51       0.0427
    406 H           3.6555   22.6376   16.9914 H      51  UNL51       0.0241
    407 H           4.6712   23.7350   17.9394 H      51  UNL51       0.0241
    408 H           4.6929   23.8113   16.1664 H      51  UNL51       0.0241
    409 CL          7.5933   28.0930    1.1910 Cl     52  UNL52      -0.1257
    410 C           6.2500   26.9312    1.1410 C.3    52  UNL52       0.0198
    411 C           4.9217   27.6572    1.1023 C.3    52  UNL52      -0.0517
    412 H           6.3770   26.3064    0.2524 H      52  UNL52       0.0427
    413 H           6.3197   26.2962    2.0286 H      52  UNL52       0.0427
    414 H           4.0986   26.9361    1.0716 H      52  UNL52       0.0241
    415 H           4.7868   28.2846    1.9895 H      52  UNL52       0.0241
    416 H           4.8440   28.2948    0.2156 H      52  UNL52       0.0241
    417 CL          7.4018   28.1644    5.0687 Cl     53  UNL53      -0.1257
    418 C           6.1018   26.9542    5.1154 C.3    53  UNL53       0.0198
    419 C           4.7469   27.6296    5.0913 C.3    53  UNL53      -0.0517
    420 H           6.2228   26.2954    4.2509 H      53  UNL53       0.0427
    421 H           6.2244   26.3623    6.0267 H      53  UNL53       0.0427
    422 H           3.9507   26.8789    5.1203 H      53  UNL53       0.0241
    423 H           4.6179   28.2908    5.9545 H      53  UNL53       0.0241
    424 H           4.6163   28.2240    4.1810 H      53  UNL53       0.0241
    425 CL          6.4163   27.3827    9.3468 Cl     54  UNL54      -0.1257
    426 C           4.9363   26.4390    9.6224 C.3    54  UNL54       0.0198
    427 C           3.7318   27.3528    9.7044 C.3    54  UNL54      -0.0517
    428 H           4.8299   25.7294    8.7970 H      54  UNL54       0.0427
    429 H           5.0621   25.8780   10.5526 H      54  UNL54       0.0427
    430 H           2.8237   26.7655    9.8742 H      54  UNL54       0.0241
    431 H           3.8306   28.0661   10.5292 H      54  UNL54       0.0241
    432 H           3.5987   27.9177    8.7759 H      54  UNL54       0.0241
    433 CL          5.1995   27.4706   12.9041 Cl     55  UNL55      -0.1257
    434 C           3.6742   26.5657   13.0114 C.3    55  UNL55       0.0198
    435 C           2.4993   27.5157   13.1093 C.3    55  UNL55      -0.0517
    436 H           3.5917   25.9365   12.1207 H      55  UNL55       0.0427
    437 H           3.7261   25.9202   13.8926 H      55  UNL55       0.0427
    438 H           1.5631   26.9522   13.1750 H      55  UNL55       0.0241
    439 H           2.5744   28.1489   13.9994 H      55  UNL55       0.0241
    440 H           2.4402   28.1653   12.2298 H      55  UNL55       0.0241
    441 CL          5.2842   27.3205   17.0245 Cl     56  UNL56      -0.1257
    442 C           3.7609   26.4061   17.0072 C.3    56  UNL56       0.0198
    443 C           2.5761   27.3476   17.0559 C.3    56  UNL56      -0.0517
    444 H           3.7400   25.8024   16.0955 H      56  UNL56       0.0427
    445 H           3.7599   25.7357   17.8712 H      56  UNL56       0.0427
    446 H           1.6412   26.7782   17.0450 H      56  UNL56       0.0241
    447 H           2.5896   27.9553   17.9666 H      56  UNL56       0.0241
    448 H           2.5698   28.0219   16.1932 H      56  UNL56       0.0241
    449 CL          5.3739   31.7634    1.1522 Cl     57  UNL57      -0.1257
    450 C           3.8315   30.8816    1.1380 C.3    57  UNL57       0.0198
    451 C           2.6672   31.8492    1.1087 C.3    57  UNL57      -0.0517
    452 H           3.8209   30.2344    0.2564 H      57  UNL57       0.0427
    453 H           3.7929   30.2546    2.0332 H      57  UNL57       0.0427
    454 H           1.7204   31.2998    1.1001 H      57  UNL57       0.0241
    455 H           2.6706   32.5004    1.9889 H      57  UNL57       0.0241
    456 H           2.6985   32.4802    0.2144 H      57  UNL57       0.0241
    457 CL          5.2148   31.8194    5.1767 Cl     58  UNL58      -0.1257
    458 C           3.7074   30.8805    5.1236 C.3    58  UNL58       0.0198
    459 C           2.5085   31.8040    5.0737 C.3    58  UNL58      -0.0517
    460 H           3.7404   30.2388    4.2386 H      58  UNL58       0.0427
    461 H           3.6728   30.2470    6.0144 H      58  UNL58       0.0427
    462 H           1.5834   31.2196    5.0411 H      58  UNL58       0.0241
    463 H           2.4681   32.4495    5.9572 H      58  UNL58       0.0241
    464 H           2.5356   32.4413    4.1837 H      58  UNL58       0.0241
    465 CL          5.0444   31.8957    8.6727 Cl     59  UNL59      -0.1257
    466 C           3.6591   30.8563    9.0697 C.3    59  UNL59       0.0198
    467 C           2.4460   31.6960    9.4100 C.3    59  UNL59      -0.0517
    468 H           3.4586   30.2166    8.2057 H      59  UNL59       0.0427
    469 H           3.9432   30.2238    9.9154 H      59  UNL59       0.0427
    470 H           1.5964   31.0500    9.6535 H      59  UNL59       0.0241
    471 H           2.6388   32.3391   10.2750 H      59  UNL59       0.0241
    472 H           2.1548   32.3318    8.5675 H      59  UNL59       0.0241
    473 CL          7.2898   31.5651   17.1861 Cl     60  UNL60      -0.1257
    474 C           5.7910   30.6179   17.0719 C.3    60  UNL60       0.0198
    475 C           4.5893   31.5347   16.9822 C.3    60  UNL60      -0.0517
    476 H           5.8607   29.9813   16.1853 H      60  UNL60       0.0427
    477 H           5.7270   29.9793   17.9573 H      60  UNL60       0.0427
    478 H           3.6696   30.9452   16.9121 H      60  UNL60       0.0241
    479 H           4.5122   32.1750   17.8670 H      60  UNL60       0.0241
    480 H           4.6457   32.1770   16.0973 H      60  UNL60       0.0241
@<TRIPOS>BOND
     1     1     2    1
     2     2     3    1
     3     2     4    1
     4     2     5    1
     5     3     6    1
     6     3     7    1
     7     3     8    1
     8     9    10    1
     9    10    11    1
    10    10    12    1
    11    10    13    1
    12    11    14    1
    13    11    15    1
    14    11    16    1
    15    17    18    1
    16    18    19    1
    17    18    20    1
    18    18    21    1
    19    19    22    1
    20    19    23    1
    21    19    24    1
    22    25    26    1
    23    26    27    1
    24    26    28    1
    25    26    29    1
    26    27    30    1
    27    27    31    1
    28    27    32    1
    29    33    34    1
    30    34    35    1
    31    34    36    1
    32    34    37    1
    33    35    38    1
    34    35    39    1
    35    35    40    1
    36    41    42    1
    37    42    43    1
    38    42    44    1
    39    42    45    1
    40    43    46    1
    41    43    47    1
    42    43    48    1
    43    49    50    1
    44    50    51    1
    45    50    52    1
    46    50    53    1
    47    51    54    1
    48    51    55    1
    49    51    56    1
    50    57    58    1
    51    58    59    1
    52    58    60    1
    53    58    61    1
    54    59    62    1
    55    59    63    1
    56    59    64    1
    57    65    66    1
    58    66    67    1
    59    66    68    1
    60    66    69    1
    61    67    70    1
    62    67    71    1
    63    67    72    1
    64    73    74    1
    65    74    75    1
    66    74    76    1
    67    74    77    1
    68    75    78    1
    69    75    79    1
    70    75    80    1
    71    81    82    1
    72    82    83    1
    73    82    84    1
    74    82    85    1
    75    83    86    1
    76    83    87    1
    77    83    88    1
    78    89    90    1
    79    90    91    1
    80    90    92    1
    81    90    93    1
    82    91    94    1
    83    91    95    1
    84    91    96    1
    85    97    98    1
    86    98    99    1
    87    98   100    1
    88    98   101    1
    89    99   102    1
    90    99   103    1
    91    99   104    1
    92   105   106    1
    93   106   107    1
    94   106   108    1
    95   106   109    1
    96   107   110    1
    97   107   111    1
    98   107   112    1
    99   113   114    1
   100   114   115    1
   101   114   116    1
   102   114   117    1
   103   115   118    1
   104   115   119    1
   105   115   120    1
   106   121   122    1
   107   122   123    1
   108   122   124    1
   109   122   125    1
   110   123   126    1
   111   123   127    1
   112   123   128    1
   113   129   130    1
   114   130   131    1
   115   130   132    1
   116   130   133    1
   117   131   134    1
   118   131   135    1
   119   131   136    1
   120   137   138    1
   121   138   139    1
   122   138   140    1
   123   138   141    1
   124   139   142    1
   125   139   143    1
   126   139   144    1
   127   145   146    1
   128   146   147    1
   129   146   148    1
   130   146   149    1
   131   147   150    1
   132   147   151    1
   133   147   152    1
   134   153   154    1
   135   154   155    1
   136   154   156    1
   137   154   157    1
   138   155   158    1
   139   155   159    1
   140   155   160    1
   141   161   162    1
   142   162   163    1
   143   162   164    1
   144   162   165    1
   145   163   166    1
   146   163   167    1
   147   163   168    1
   148   169   170    1
   149   170   171    1
   150   170   172    1
   151   170   173    1
   152   171   174    1
   153   171   175    1
   154   171   176    1
   155   177   178    1
   156   178   179    1
   157   178   180    1
   158   178   181    1
   159   179   182    1
   160   179   183    1
   161   179   184    1
   162   185   186    1
   163   186   187    1
   164   186   188    1
   165   186   189    1
   166   187   190    1
   167   187   191    1
   168   187   192    1
   169   193   194    1
   170   194   195    1
   171   194   196    1
   172   194   197    1
   173   195   198    1
   174   195   199    1
   175   195   200    1
   176   201   202    1
   177   202   203    1
   178   202   204    1
   179   202   205    1
   180   203   206    1
   181   203   207    1
   182   203   208    1
   183   209   210    1
   184   210   211    1
   185   210   212    1
   186   210   213    1
   187   211   214    1
   188   211   215    1
   189   211   216    1
   190   217   218    1
   191   218   219    1
   192   218   220    1
   193   218   221    1
   194   219   222    1
   195   219   223    1
   196   219   224    1
   197   225   226    1
   198   226   227    1
   199   226   228    1
   200   226   229    1
   201   227   230    1
   202   227   231    1
   203   227   232    1
   204   233   234    1
   205   234   235    1
   206   234   236    1
   207   234   237    1
   208   235   238    1
   209   235   239    1
   210   235   240    1
   211   241   242    1
   212   242   243    1
   213   242   244    1
   214   242   245    1
   215   243   246    1
   216   243   247    1
   217   243   248    1
   218   249   250    1
   219   250   251    1
   220   250   252    1
   221   250   253    1
   222   251   254    1
   223   251   255    1
   224   251   256    1
   225   257   258    1
   226   258   259    1
   227   258   260    1
   228   258   261    1
   229   259   262    1
   230   259   263    1
   231   259   264    1
   232   265   266    1
   233   266   267    1
   234   266   268    1
   235   266   269    1
   236   267   270    1
   237   267   271    1
   238   267   272    1
   239   273   274    1
   240   274   275    1
   241   274   276    1
   242   274   277    1
   243   275   278    1
   244   275   279    1
   245   275   280    1
   246   281   282    1
   247   282   283    1
   248   282   284    1
   249   282   285    1
   250   283   286    1
   251   283   287    1
   252   283   288    1
   253   289   290    1
   254   290   291    1
   255   290   292    1
   256   290   293    1
   257   291   294    1
   258   291   295    1
   259   291   296    1
   260   297   298    1
   261   298   299    1
   262   298   300    1
   263   298   301    1
   264   299   302    1
   265   299   303    1
   266   299   304    1
   267   305   306    1
   268   306   307    1
   269   306   308    1
   270   306   309    1
   271   307   310    1
   272   307   311    1
   273   307   312    1
   274   313   314    1
   275   314   315    1
   276   314   316    1
   277   314   317    1
   278   315   318    1
   279   315   319    1
   280   315   320    1
   281   321   322    1
   282   322   323    1
   283   322   324    1
   284   322   325    1
   285   323   326    1
   286   323   327    1
   287   323   328    1
   288   329   330    1
   289   330   331    1
   290   330   332    1
   291   330   333    1
   292   331   334    1
   293   331   335    1
   294   331   336    1
   295   337   338    1
   296   338   339    1
   297   338   340    1
   298   338   341    1
   299   339   342    1
   300   339   343    1
   301   339   344    1
   302   345   346    1
   303   346   347    1
   304   346   348    1
   305   346   349    1
   306   347   350    1
   307   347   351    1
   308   347   352    1
   309   353   354    1
   310   354   355    1
   311   354   356    1
   312   354   357    1
   313   355   358    1
   314   355   359    1
   315   355   360    1
   316   361   362    1
   317   362   363    1
   318   362   364    1
   319   362   365    1
   320   363   366    1
   321   363   367    1
   322   363   368    1
   323   369   370    1
   324   370   371    1
   325   370   372    1
   326   370   373    1
   327   371   374    1
   328   371   375    1
   329   371   376    1
   330   377   378    1
   331   378   379    1
   332   378   380    1
   333   378   381    1
   334   379   382    1
   335   379   383    1
   336   379   384    1
   337   385   386    1
   338   386   387    1
   339   386   388    1
   340   386   389    1
   341   387   390    1
   342   387   391    1
   343   387   392    1
   344   393   394    1
   345   394   395    1
   346   394   396    1
   347   394   397    1
   348   395   398    1
   349   395   399    1
   350   395   400    1
   351   401   402    1
   352   402   403    1
   353   402   404    1
   354   402   405    1
   355   403   406    1
   356   403   407    1
   357   403   408    1
   358   409   410    1
   359   410   411    1
   360   410   412    1
   361   410   413    1
   362   411   414    1
   363   411   415    1
   364   411   416    1
   365   417   418    1
   366   418   419    1
   367   418   420    1
   368   418   421    1
   369   419   422    1
   370   419   423    1
   371   419   424    1
   372   425   426    1
   373   426   427    1
   374   426   428    1
   375   426   429    1
   376   427   430    1
   377   427   431    1
   378   427   432    1
   379   433   434    1
   380   434   435    1
   381   434   436    1
   382   434   437    1
   383   435   438    1
   384   435   439    1
   385   435   440    1
   386   441   442    1
   387   442   443    1
   388   442   444    1
   389   442   445    1
   390   443   446    1
   391   443   447    1
   392   443   448    1
   393   449   450    1
   394   450   451    1
   395   450   452    1
   396   450   453    1
   397   451   454    1
   398   451   455    1
   399   451   456    1
   400   457   458    1
   401   458   459    1
   402   458   460    1
   403   458   461    1
   404   459   462    1
   405   459   463    1
   406   459   464    1
   407   465   466    1
   408   466   467    1
   409   466   468    1
   410   466   469    1
   411   467   470    1
   412   467   471    1
   413   467   472    1
   414   473   474    1
   415   474   475    1
   416   474   476    1
   417   474   477    1
   418   475   478    1
   419   475   479    1
   420   475   480    1
