@<TRIPOS>MOLECULE
*****
 144 126 0 0 0
SMALL
GASTEIGER

@<TRIPOS>ATOM
      1 CL         -2.0330   -2.3527   -1.0995 Cl      1  UNL1       -0.1257
      2 C          -2.6823   -0.6989   -1.0995 C.3     1  UNL1        0.0198
      3 C          -1.5563    0.3134   -1.0995 C.3     1  UNL1       -0.0517
      4 H          -3.3092   -0.5824   -1.9881 H       1  UNL1        0.0427
      5 H          -3.3092   -0.5824   -0.2110 H       1  UNL1        0.0427
      6 H          -1.9629    1.3298   -1.0995 H       1  UNL1        0.0241
      7 H          -0.9243    0.2035   -0.2121 H       1  UNL1        0.0241
      8 H          -0.9243    0.2035   -1.9869 H       1  UNL1        0.0241
      9 CL         -1.8415   -2.2145    3.3790 Cl      2  UNL2       -0.1257
     10 C          -2.5309   -0.7111    4.0280 C.3     2  UNL2        0.0198
     11 C          -1.4652    0.3594    4.1330 C.3     2  UNL2       -0.0517
     12 H          -3.3362   -0.3931    3.3598 H       2  UNL2        0.0427
     13 H          -2.9575   -0.9319    5.0104 H       2  UNL2        0.0427
     14 H          -1.8962    1.2826    4.5333 H       2  UNL2        0.0241
     15 H          -0.6553    0.0485    4.8011 H       2  UNL2        0.0241
     16 H          -1.0335    0.5867    3.1527 H       2  UNL2        0.0241
     17 CL         -2.0610    1.1393    8.5222 Cl      3  UNL3       -0.1257
     18 C          -2.7103   -0.3988    7.9146 C.3     3  UNL3        0.0198
     19 C          -1.5843   -1.3403    7.5427 C.3     3  UNL3       -0.0517
     20 H          -3.3372   -0.8336    8.6982 H       3  UNL3        0.0427
     21 H          -3.3372   -0.1807    7.0454 H       3  UNL3        0.0427
     22 H          -1.9909   -2.2856    7.1692 H       3  UNL3        0.0241
     23 H          -0.9523   -0.9121    6.7577 H       3  UNL3        0.0241
     24 H          -0.9523   -1.5642    8.4084 H       3  UNL3        0.0241
     25 CL          1.5450   -1.1938   -0.9901 Cl      4  UNL4       -0.1257
     26 C           3.3001   -1.3434   -1.2219 C.3     4  UNL4        0.0198
     27 C           4.0313   -1.0820    0.0780 C.3     4  UNL4       -0.0517
     28 H           3.5074   -2.3530   -1.5877 H       4  UNL4        0.0427
     29 H           3.6018   -0.6243   -1.9886 H       4  UNL4        0.0427
     30 H           5.1117   -1.1757   -0.0716 H       4  UNL4        0.0241
     31 H           3.8293   -0.0723    0.4505 H       4  UNL4        0.0241
     32 H           3.7350   -1.7988    0.8508 H       4  UNL4        0.0241
     33 CL          1.5401   -1.1511    3.4368 Cl      5  UNL5       -0.1257
     34 C           1.7569    0.6124    3.4368 C.3     5  UNL5        0.0198
     35 C           3.2292    0.9661    3.4368 C.3     5  UNL5       -0.0517
     36 H           1.2612    1.0133    2.5482 H       5  UNL5        0.0427
     37 H           1.2612    1.0133    4.3253 H       5  UNL5        0.0427
     38 H           3.3558    2.0535    3.4368 H       5  UNL5        0.0241
     39 H           3.7325    0.5685    4.3242 H       5  UNL5        0.0241
     40 H           3.7325    0.5685    2.5494 H       5  UNL5        0.0241
     41 CL          5.2044   -1.3680    7.1053 Cl      6  UNL6       -0.1257
     42 C           3.6619   -1.2405    7.9777 C.3     6  UNL6        0.0198
     43 C           2.4974   -1.3805    7.0201 C.3     6  UNL6       -0.0517
     44 H           3.6373   -2.0276    8.7366 H       6  UNL6        0.0427
     45 H           3.6373   -0.2692    8.4796 H       6  UNL6        0.0427
     46 H           1.5505   -1.3010    7.5636 H       6  UNL6        0.0241
     47 H           2.5147   -0.5951    6.2573 H       6  UNL6        0.0241
     48 H           2.5147   -2.3513    6.5140 H       6  UNL6        0.0241
     49 CL          4.1177    5.1167   -1.0995 Cl      7  UNL7       -0.1257
     50 C           4.1140    3.3400   -1.0995 C.3     7  UNL7        0.0198
     51 C           2.6948    2.8123   -1.0995 C.3     7  UNL7       -0.0517
     52 H           4.6542    3.0014   -1.9881 H       7  UNL7        0.0427
     53 H           4.6542    3.0014   -0.2110 H       7  UNL7        0.0427
     54 H           2.6995    1.7176   -1.0995 H       7  UNL7        0.0241
     55 H           2.1474    3.1466   -0.2121 H       7  UNL7        0.0241
     56 H           2.1474    3.1466   -1.9869 H       7  UNL7        0.0241
     57 CL          6.5852    2.0810    7.0457 Cl      8  UNL8       -0.1257
     58 C           5.0427    2.2085    7.9181 C.3     8  UNL8        0.0198
     59 C           3.8782    2.0685    6.9605 C.3     8  UNL8       -0.0517
     60 H           5.0181    1.4214    8.6771 H       8  UNL8        0.0427
     61 H           5.0181    3.1798    8.4201 H       8  UNL8        0.0427
     62 H           2.9313    2.1479    7.5040 H       8  UNL8        0.0241
     63 H           3.8955    2.8538    6.1977 H       8  UNL8        0.0241
     64 H           3.8955    1.0977    6.4544 H       8  UNL8        0.0241
     65 CL         11.0773   -2.3523   -1.3145 Cl      9  UNL9       -0.1257
     66 C          10.2527   -0.7913   -1.1147 C.3     9  UNL9        0.0198
     67 C           8.7584   -0.9941   -0.9778 C.3     9  UNL9       -0.0517
     68 H          10.6617   -0.3051   -0.2245 H       9  UNL9        0.0427
     69 H          10.4824   -0.1740   -1.9877 H       9  UNL9        0.0427
     70 H           8.2565   -0.0290   -0.8550 H       9  UNL9        0.0241
     71 H           8.3412   -1.4801   -1.8659 H       9  UNL9        0.0241
     72 H           8.5203   -1.6109   -0.1050 H       9  UNL9        0.0241
     73 CL          9.6979   -2.3525    3.6582 Cl     10  UNL10      -0.1257
     74 C           8.6299   -0.9657    3.9633 C.3    10  UNL10       0.0198
     75 C           7.2466   -1.4380    4.3584 C.3    10  UNL10      -0.0517
     76 H           9.0770   -0.3642    4.7597 H      10  UNL10       0.0427
     77 H           8.5890   -0.3642    3.0509 H      10  UNL10       0.0427
     78 H           6.5938   -0.5792    4.5448 H      10  UNL10       0.0241
     79 H           6.7918   -2.0407    3.5654 H      10  UNL10       0.0241
     80 H           7.2792   -2.0407    5.2719 H      10  UNL10       0.0241
     81 CL          9.1752   -2.2173    7.8606 Cl     11  UNL11      -0.1257
     82 C           8.5258   -0.5635    7.8606 C.3    11  UNL11       0.0198
     83 C           9.6518    0.4488    7.8606 C.3    11  UNL11      -0.0517
     84 H           7.8990   -0.4470    6.9720 H      11  UNL11       0.0427
     85 H           7.8990   -0.4470    8.7491 H      11  UNL11       0.0427
     86 H           9.2453    1.4652    7.8606 H      11  UNL11       0.0241
     87 H          10.2838    0.3390    8.7480 H      11  UNL11       0.0241
     88 H          10.2838    0.3390    6.9732 H      11  UNL11       0.0241
     89 CL         17.4480    0.8763   -1.6137 Cl     12  UNL12      -0.1257
     90 C          16.0441   -0.1180   -1.1700 C.3    12  UNL12       0.0198
     91 C          14.8327    0.7555   -0.9205 C.3    12  UNL12      -0.0517
     92 H          15.8553   -0.8194   -1.9876 H      12  UNL12       0.0427
     93 H          16.3037   -0.6873   -0.2730 H      12  UNL12       0.0427
     94 H          13.9716    0.1371   -0.6476 H      12  UNL12       0.0241
     95 H          15.0138    1.4603   -0.1023 H      12  UNL12       0.0241
     96 H          14.5660    1.3284   -1.8146 H      12  UNL12       0.0241
     97 CL         14.4406   -2.3532    2.3844 Cl     13  UNL13      -0.1257
     98 C          13.0231   -1.5937    3.1396 C.3    13  UNL13       0.0198
     99 C          13.3522   -0.1860    3.5901 C.3    13  UNL13      -0.0517
    100 H          12.2125   -1.5870    2.4055 H      13  UNL13       0.0427
    101 H          12.7211   -2.2126    3.9892 H      13  UNL13       0.0427
    102 H          12.4751    0.2761    4.0543 H      13  UNL13       0.0241
    103 H          14.1628   -0.1845    4.3261 H      13  UNL13       0.0241
    104 H          13.6549    0.4403    2.7445 H      13  UNL13       0.0241
    105 CL         17.1756   -1.3696    7.9011 Cl     14  UNL14      -0.1257
    106 C          15.6331   -1.2421    7.0287 C.3    14  UNL14       0.0198
    107 C          14.4686   -1.3821    7.9863 C.3    14  UNL14      -0.0517
    108 H          15.6085   -0.2707    6.5268 H      14  UNL14       0.0427
    109 H          15.6085   -2.0291    6.2698 H      14  UNL14       0.0427
    110 H          13.5217   -1.3026    7.4428 H      14  UNL14       0.0241
    111 H          14.4859   -2.3529    8.4924 H      14  UNL14       0.0241
    112 H          14.4859   -0.5967    8.7491 H      14  UNL14       0.0241
    113 CL         22.7941   -1.2961   -1.1243 Cl     15  UNL15      -0.1257
    114 C          21.2516   -1.1686   -0.2519 C.3    15  UNL15       0.0198
    115 C          20.0871   -1.3086   -1.2095 C.3    15  UNL15      -0.0517
    116 H          21.2270   -1.9557    0.5070 H      15  UNL15       0.0427
    117 H          21.2270   -0.1973    0.2500 H      15  UNL15       0.0427
    118 H          19.1402   -1.2291   -0.6660 H      15  UNL15       0.0241
    119 H          20.1044   -0.5232   -1.9723 H      15  UNL15       0.0241
    120 H          20.1044   -2.2794   -1.7156 H      15  UNL15       0.0241
    121 CL         21.8457   -1.5465    3.2589 Cl     16  UNL16      -0.1257
    122 C          20.3032   -0.6686    3.1773 C.3    16  UNL16       0.0198
    123 C          19.1387   -1.6323    3.2669 C.3    16  UNL16      -0.0517
    124 H          20.2786    0.0480    4.0030 H      16  UNL16       0.0427
    125 H          20.2786   -0.1165    2.2336 H      16  UNL16       0.0427
    126 H          18.1918   -1.0853    3.2160 H      16  UNL16       0.0241
    127 H          19.1560   -2.3529    2.4427 H      16  UNL16       0.0241
    128 H          19.1560   -2.1885    4.2099 H      16  UNL16       0.0241
    129 CL         20.5465   -0.7775    8.6336 Cl     17  UNL17      -0.1257
    130 C          21.9730   -1.6246    7.9979 C.3    17  UNL17       0.0198
    131 C          23.0813   -0.6400    7.6897 C.3    17  UNL17      -0.0517
    132 H          22.2966   -2.3510    8.7487 H      17  UNL17       0.0427
    133 H          21.6710   -2.1641    7.0959 H      17  UNL17       0.0427
    134 H          23.9569   -1.1680    7.2986 H      17  UNL17       0.0241
    135 H          22.7650    0.0905    6.9379 H      17  UNL17       0.0241
    136 H          23.3898   -0.0961    8.5886 H      17  UNL17       0.0241
    137 CL         21.2995    5.4223   -1.4613 Cl     18  UNL18      -0.1257
    138 C          22.0578    4.2393   -0.3739 C.3    18  UNL18       0.0198
    139 C          23.1502    3.4789   -1.0959 C.3    18  UNL18      -0.0517
    140 H          22.4644    4.7818    0.4842 H      18  UNL18       0.0427
    141 H          21.2789    3.5580   -0.0205 H      18  UNL18       0.0427
    142 H          23.6131    2.7521   -0.4208 H      18  UNL18       0.0241
    143 H          22.7506    2.9323   -1.9564 H      18  UNL18       0.0241
    144 H          23.9346    4.1546   -1.4523 H      18  UNL18       0.0241
@<TRIPOS>BOND
     1     1     2    1
     2     2     3    1
     3     2     4    1
     4     2     5    1
     5     3     6    1
     6     3     7    1
     7     3     8    1
     8     9    10    1
     9    10    11    1
    10    10    12    1
    11    10    13    1
    12    11    14    1
    13    11    15    1
    14    11    16    1
    15    17    18    1
    16    18    19    1
    17    18    20    1
    18    18    21    1
    19    19    22    1
    20    19    23    1
    21    19    24    1
    22    25    26    1
    23    26    27    1
    24    26    28    1
    25    26    29    1
    26    27    30    1
    27    27    31    1
    28    27    32    1
    29    33    34    1
    30    34    35    1
    31    34    36    1
    32    34    37    1
    33    35    38    1
    34    35    39    1
    35    35    40    1
    36    41    42    1
    37    42    43    1
    38    42    44    1
    39    42    45    1
    40    43    46    1
    41    43    47    1
    42    43    48    1
    43    49    50    1
    44    50    51    1
    45    50    52    1
    46    50    53    1
    47    51    54    1
    48    51    55    1
    49    51    56    1
    50    57    58    1
    51    58    59    1
    52    58    60    1
    53    58    61    1
    54    59    62    1
    55    59    63    1
    56    59    64    1
    57    65    66    1
    58    66    67    1
    59    66    68    1
    60    66    69    1
    61    67    70    1
    62    67    71    1
    63    67    72    1
    64    73    74    1
    65    74    75    1
    66    74    76    1
    67    74    77    1
    68    75    78    1
    69    75    79    1
    70    75    80    1
    71    81    82    1
    72    82    83    1
    73    82    84    1
    74    82    85    1
    75    83    86    1
    76    83    87    1
    77    83    88    1
    78    89    90    1
    79    90    91    1
    80    90    92    1
    81    90    93    1
    82    91    94    1
    83    91    95    1
    84    91    96    1
    85    97    98    1
    86    98    99    1
    87    98   100    1
    88    98   101    1
    89    99   102    1
    90    99   103    1
    91    99   104    1
    92   105   106    1
    93   106   107    1
    94   106   108    1
    95   106   109    1
    96   107   110    1
    97   107   111    1
    98   107   112    1
    99   113   114    1
   100   114   115    1
   101   114   116    1
   102   114   117    1
   103   115   118    1
   104   115   119    1
   105   115   120    1
   106   121   122    1
   107   122   123    1
   108   122   124    1
   109   122   125    1
   110   123   126    1
   111   123   127    1
   112   123   128    1
   113   129   130    1
   114   130   131    1
   115   130   132    1
   116   130   133    1
   117   131   134    1
   118   131   135    1
   119   131   136    1
   120   137   138    1
   121   138   139    1
   122   138   140    1
   123   138   141    1
   124   139   142    1
   125   139   143    1
   126   139   144    1
