@<TRIPOS>MOLECULE
*****
 112 98 0 0 0
SMALL
GASTEIGER

@<TRIPOS>ATOM
      1 CL          0.4360   -0.8344   -1.0996 Cl      1  UNL1       -0.1257
      2 C          -1.1065   -1.7161   -1.0996 C.3     1  UNL1        0.0198
      3 C          -2.2710   -0.7483   -1.0996 C.3     1  UNL1       -0.0517
      4 H          -1.1311   -2.3532   -1.9882 H       1  UNL1        0.0427
      5 H          -1.1311   -2.3532   -0.2111 H       1  UNL1        0.0427
      6 H          -3.2179   -1.2976   -1.0996 H       1  UNL1        0.0241
      7 H          -2.2537   -0.1071   -0.2122 H       1  UNL1        0.0241
      8 H          -2.2537   -0.1071   -1.9870 H       1  UNL1        0.0241
      9 CL          0.0996   -0.8344    3.0141 Cl      2  UNL2       -0.1257
     10 C          -1.3486   -1.7161    3.5452 C.3     2  UNL2        0.0198
     11 C          -2.4418   -0.7483    3.9463 C.3     2  UNL2       -0.0517
     12 H          -1.6777   -2.3532    2.7195 H       2  UNL2        0.0427
     13 H          -1.0657   -2.3532    4.3879 H       2  UNL2        0.0427
     14 H          -3.3308   -1.2976    4.2723 H       2  UNL2        0.0241
     15 H          -2.1200   -0.1071    4.7734 H       2  UNL2        0.0241
     16 H          -2.7312   -0.1071    3.1072 H       2  UNL2        0.0241
     17 CL         -0.7059    2.2619   -1.9183 Cl      3  UNL3       -0.1257
     18 C          -1.1247    2.3896   -0.1963 C.3     3  UNL3        0.0198
     19 C          -2.6141    2.6029   -0.0268 C.3     3  UNL3       -0.0517
     20 H          -0.8057    1.4676    0.2979 H       3  UNL3        0.0427
     21 H          -0.5620    3.2265    0.2267 H       3  UNL3        0.0427
     22 H          -2.8654    2.6807    1.0358 H       3  UNL3        0.0241
     23 H          -2.9412    3.5249   -0.5185 H       3  UNL3        0.0241
     24 H          -3.1846    1.7683   -0.4474 H       3  UNL3        0.0241
     25 CL          0.8227    3.3485    3.9750 Cl      4  UNL4       -0.1257
     26 C          -0.7198    3.1720    3.1112 C.3     4  UNL4        0.0198
     27 C          -1.8843    3.3657    4.0594 C.3     4  UNL4       -0.0517
     28 H          -0.7443    3.9151    2.3091 H       4  UNL4        0.0427
     29 H          -0.7443    2.1740    2.6648 H       4  UNL4        0.0427
     30 H          -2.8312    3.2558    3.5212 H       4  UNL4        0.0241
     31 H          -1.8670    2.6246    4.8652 H       4  UNL4        0.0241
     32 H          -1.8670    4.3635    4.5100 H       4  UNL4        0.0241
     33 CL          0.3169    6.5606   -1.0996 Cl      5  UNL5       -0.1257
     34 C          -1.2256    5.6789   -1.0996 C.3     5  UNL5        0.0198
     35 C          -2.3901    6.6467   -1.0996 C.3     5  UNL5       -0.0517
     36 H          -1.2502    5.0418   -1.9882 H       5  UNL5        0.0427
     37 H          -1.2502    5.0418   -0.2111 H       5  UNL5        0.0427
     38 H          -3.3370    6.0974   -1.0996 H       5  UNL5        0.0241
     39 H          -2.3728    7.2879   -0.2122 H       5  UNL5        0.0241
     40 H          -2.3728    7.2879   -1.9870 H       5  UNL5        0.0241
     41 CL         -1.9743    6.4425    2.6796 Cl      6  UNL6       -0.1257
     42 C          -0.2888    6.7415    2.2036 C.3     6  UNL6        0.0198
     43 C           0.5636    7.0293    3.4215 C.3     6  UNL6       -0.0517
     44 H           0.0750    5.8556    1.6755 H       6  UNL6        0.0427
     45 H          -0.2785    7.5896    1.5132 H       6  UNL6        0.0427
     46 H           1.6003    7.2126    3.1215 H       6  UNL6        0.0241
     47 H           0.2058    7.9159    3.9554 H       6  UNL6        0.0241
     48 H           0.5588    6.1841    4.1175 H       6  UNL6        0.0241
     49 CL          0.5630   10.4437   -1.0996 Cl      7  UNL7       -0.1257
     50 C          -0.9795    9.5620   -1.0996 C.3     7  UNL7        0.0198
     51 C          -2.1440   10.5298   -1.0996 C.3     7  UNL7       -0.0517
     52 H          -1.0041    8.9249   -1.9882 H       7  UNL7        0.0427
     53 H          -1.0041    8.9249   -0.2111 H       7  UNL7        0.0427
     54 H          -3.0909    9.9805   -1.0996 H       7  UNL7        0.0241
     55 H          -2.1267   11.1710   -0.2122 H       7  UNL7        0.0241
     56 H          -2.1267   11.1710   -1.9870 H       7  UNL7        0.0241
     57 CL         -3.3359   11.1327    3.9152 Cl      8  UNL8       -0.1257
     58 C          -2.6390   10.1298    2.6248 C.3     8  UNL8        0.0198
     59 C          -1.1265   10.1821    2.6703 C.3     8  UNL8       -0.0517
     60 H          -2.9965    9.1055    2.7632 H       8  UNL8        0.0427
     61 H          -3.0119   10.5045    1.6675 H       8  UNL8        0.0427
     62 H          -0.7035    9.5624    1.8732 H       8  UNL8        0.0241
     63 H          -0.7607   11.2048    2.5318 H       8  UNL8        0.0241
     64 H          -0.7453    9.8076    3.6261 H       8  UNL8        0.0241
     65 CL          0.6567   13.9023   -0.2708 Cl      9  UNL9       -0.1257
     66 C          -0.8858   13.8365   -1.1500 C.3     9  UNL9        0.0198
     67 C          -2.0503   13.9087   -0.1849 C.3     9  UNL9       -0.0517
     68 H          -0.9104   14.6751   -1.8516 H       9  UNL9        0.0427
     69 H          -0.9104   12.9029   -1.7191 H       9  UNL9        0.0427
     70 H          -2.9972   13.8677   -0.7327 H       9  UNL9        0.0241
     71 H          -2.0330   13.0716    0.5207 H       9  UNL9        0.0241
     72 H          -2.0330   14.8414    0.3883 H       9  UNL9        0.0241
     73 CL          2.1084   15.4015    2.5364 Cl     10  UNL10      -0.1257
     74 C           1.1142   14.0468    3.1135 C.3    10  UNL10       0.0198
     75 C          -0.3492   14.4347    3.1368 C.3    10  UNL10      -0.0517
     76 H           1.2802   13.1975    2.4448 H      10  UNL10       0.0427
     77 H           1.4603   13.7769    4.1151 H      10  UNL10       0.0427
     78 H          -0.9560   13.5961    3.4931 H      10  UNL10       0.0241
     79 H          -0.5237   15.2844    3.8050 H      10  UNL10       0.0241
     80 H          -0.7036   14.7057    2.1368 H      10  UNL10       0.0241
     81 CL          0.3608   17.3129   -1.0996 Cl     11  UNL11      -0.1257
     82 C          -1.4147   17.2474   -1.0996 C.3    11  UNL11       0.0198
     83 C          -1.9974   18.6450   -1.0996 C.3    11  UNL11      -0.0517
     84 H          -1.7321   16.6944   -1.9882 H      11  UNL11       0.0427
     85 H          -1.7321   16.6944   -0.2111 H      11  UNL11       0.0427
     86 H          -3.0910   18.5977   -1.0996 H      11  UNL11       0.0241
     87 H          -1.6846   19.2050   -0.2122 H      11  UNL11       0.0241
     88 H          -1.6846   19.2050   -1.9870 H      11  UNL11       0.0241
     89 CL         -3.3362   20.2731    1.6414 Cl     12  UNL12      -0.1257
     90 C          -2.6281   18.8292    2.3965 C.3    12  UNL12       0.0198
     91 C          -1.1480   19.0313    2.6438 C.3    12  UNL12      -0.0517
     92 H          -3.1572   18.6457    3.3360 H      12  UNL12       0.0427
     93 H          -2.7978   17.9808    1.7276 H      12  UNL12       0.0427
     94 H          -0.7180   18.1385    3.1090 H      12  UNL12       0.0241
     95 H          -0.6110   19.2149    1.7074 H      12  UNL12       0.0241
     96 H          -0.9700   19.8789    3.3136 H      12  UNL12       0.0241
     97 CL          0.8345   22.7061   -1.0996 Cl     13  UNL13      -0.1257
     98 C          -0.7080   21.8244   -1.0996 C.3    13  UNL13       0.0198
     99 C          -1.8725   22.7922   -1.0996 C.3    13  UNL13      -0.0517
    100 H          -0.7326   21.1873   -1.9882 H      13  UNL13       0.0427
    101 H          -0.7326   21.1873   -0.2111 H      13  UNL13       0.0427
    102 H          -2.8194   22.2429   -1.0996 H      13  UNL13       0.0241
    103 H          -1.8552   23.4334   -0.2122 H      13  UNL13       0.0241
    104 H          -1.8552   23.4334   -1.9870 H      13  UNL13       0.0241
    105 CL          2.3442   22.7061    2.2754 Cl     14  UNL14      -0.1257
    106 C           0.8017   21.8244    2.2754 C.3    14  UNL14       0.0198
    107 C          -0.3628   22.7922    2.2754 C.3    14  UNL14      -0.0517
    108 H           0.7771   21.1873    1.3868 H      14  UNL14       0.0427
    109 H           0.7771   21.1873    3.1639 H      14  UNL14       0.0427
    110 H          -1.3097   22.2429    2.2754 H      14  UNL14       0.0241
    111 H          -0.3455   23.4334    3.1628 H      14  UNL14       0.0241
    112 H          -0.3455   23.4334    1.3880 H      14  UNL14       0.0241
@<TRIPOS>BOND
     1     1     2    1
     2     2     3    1
     3     2     4    1
     4     2     5    1
     5     3     6    1
     6     3     7    1
     7     3     8    1
     8     9    10    1
     9    10    11    1
    10    10    12    1
    11    10    13    1
    12    11    14    1
    13    11    15    1
    14    11    16    1
    15    17    18    1
    16    18    19    1
    17    18    20    1
    18    18    21    1
    19    19    22    1
    20    19    23    1
    21    19    24    1
    22    25    26    1
    23    26    27    1
    24    26    28    1
    25    26    29    1
    26    27    30    1
    27    27    31    1
    28    27    32    1
    29    33    34    1
    30    34    35    1
    31    34    36    1
    32    34    37    1
    33    35    38    1
    34    35    39    1
    35    35    40    1
    36    41    42    1
    37    42    43    1
    38    42    44    1
    39    42    45    1
    40    43    46    1
    41    43    47    1
    42    43    48    1
    43    49    50    1
    44    50    51    1
    45    50    52    1
    46    50    53    1
    47    51    54    1
    48    51    55    1
    49    51    56    1
    50    57    58    1
    51    58    59    1
    52    58    60    1
    53    58    61    1
    54    59    62    1
    55    59    63    1
    56    59    64    1
    57    65    66    1
    58    66    67    1
    59    66    68    1
    60    66    69    1
    61    67    70    1
    62    67    71    1
    63    67    72    1
    64    73    74    1
    65    74    75    1
    66    74    76    1
    67    74    77    1
    68    75    78    1
    69    75    79    1
    70    75    80    1
    71    81    82    1
    72    82    83    1
    73    82    84    1
    74    82    85    1
    75    83    86    1
    76    83    87    1
    77    83    88    1
    78    89    90    1
    79    90    91    1
    80    90    92    1
    81    90    93    1
    82    91    94    1
    83    91    95    1
    84    91    96    1
    85    97    98    1
    86    98    99    1
    87    98   100    1
    88    98   101    1
    89    99   102    1
    90    99   103    1
    91    99   104    1
    92   105   106    1
    93   106   107    1
    94   106   108    1
    95   106   109    1
    96   107   110    1
    97   107   111    1
    98   107   112    1
