@<TRIPOS>MOLECULE
*****
 296 259 0 0 0
SMALL
GASTEIGER

@<TRIPOS>ATOM
      1 CL          2.4578    0.0398    4.8964 Cl      1  UNL1       -0.1257
      2 C           1.4392   -0.8419    6.0548 C.3     1  UNL1        0.0198
      3 C           0.6703    0.1259    6.9294 C.3     1  UNL1       -0.0517
      4 H           0.7557   -1.4790    5.4866 H       1  UNL1        0.0427
      5 H           2.0902   -1.4790    6.6600 H       1  UNL1        0.0427
      6 H           0.0450   -0.4234    7.6405 H       1  UNL1        0.0241
      7 H           1.3481    0.7671    7.5023 H       1  UNL1        0.0241
      8 H           0.0153    0.7671    6.3304 H       1  UNL1        0.0241
      9 CL          2.7548    1.8190    1.4570 Cl      2  UNL2       -0.1257
     10 C           1.2123    0.9373    1.4570 C.3     2  UNL2        0.0198
     11 C           0.0478    1.9051    1.4570 C.3     2  UNL2       -0.0517
     12 H           1.1877    0.3002    0.5684 H       2  UNL2        0.0427
     13 H           1.1877    0.3002    2.3455 H       2  UNL2        0.0427
     14 H          -0.8991    1.3558    1.4570 H       2  UNL2        0.0241
     15 H           0.0651    2.5463    2.3444 H       2  UNL2        0.0241
     16 H           0.0651    2.5463    0.5696 H       2  UNL2        0.0241
     17 CL         -0.7804    1.6371    4.6376 Cl      3  UNL3       -0.1257
     18 C           0.2127    3.1103    4.6376 C.3     3  UNL3        0.0198
     19 C           1.6853    2.7578    4.6376 C.3     3  UNL3       -0.0517
     20 H          -0.0472    3.6925    3.7490 H       3  UNL3        0.0427
     21 H          -0.0472    3.6925    5.5261 H       3  UNL3        0.0427
     22 H           2.2913    3.6694    4.6376 H       3  UNL3        0.0241
     23 H           1.9535    2.1751    5.5250 H       3  UNL3        0.0241
     24 H           1.9535    2.1751    3.7502 H       3  UNL3        0.0241
     25 CL          2.4120    5.4163   -1.0683 Cl      4  UNL4       -0.1257
     26 C           1.5214    6.8895   -0.6289 C.3     4  UNL4        0.0198
     27 C           0.2009    6.5369    0.0228 C.3     4  UNL4       -0.0517
     28 H           2.1477    7.4717    0.0530 H       4  UNL4        0.0427
     29 H           1.3613    7.4717   -1.5406 H       4  UNL4        0.0427
     30 H          -0.3426    7.4486    0.2910 H       4  UNL4        0.0241
     31 H          -0.4323    5.9543   -0.6543 H       4  UNL4        0.0241
     32 H           0.3531    5.9543    0.9373 H       4  UNL4        0.0241
     33 CL          2.9548    6.9981    3.0570 Cl      5  UNL5       -0.1257
     34 C           1.4123    6.1164    3.0570 C.3     5  UNL5        0.0198
     35 C           0.2478    7.0842    3.0570 C.3     5  UNL5       -0.0517
     36 H           1.3877    5.4793    2.1684 H       5  UNL5        0.0427
     37 H           1.3877    5.4793    3.9455 H       5  UNL5        0.0427
     38 H          -0.6991    6.5349    3.0570 H       5  UNL5        0.0241
     39 H           0.2651    7.7254    3.9444 H       5  UNL5        0.0241
     40 H           0.2651    7.7254    2.1696 H       5  UNL5        0.0241
     41 CL          2.9548    6.9981    6.6376 Cl      6  UNL6       -0.1257
     42 C           1.4123    6.1164    6.6376 C.3     6  UNL6        0.0198
     43 C           0.2478    7.0842    6.6376 C.3     6  UNL6       -0.0517
     44 H           1.3877    5.4793    5.7490 H       6  UNL6        0.0427
     45 H           1.3877    5.4793    7.5261 H       6  UNL6        0.0427
     46 H          -0.6991    6.5349    6.6376 H       6  UNL6        0.0241
     47 H           0.2651    7.7254    7.5250 H       6  UNL6        0.0241
     48 H           0.2651    7.7254    5.7502 H       6  UNL6        0.0241
     49 CL          2.7479   -2.1421   -0.3235 Cl      7  UNL7       -0.1257
     50 C           3.7410   -0.6689   -0.3235 C.3     7  UNL7        0.0198
     51 C           5.2136   -1.0214   -0.3235 C.3     7  UNL7       -0.0517
     52 H           3.4812   -0.0866   -1.2121 H       7  UNL7        0.0427
     53 H           3.4812   -0.0866    0.5650 H       7  UNL7        0.0427
     54 H           5.8196   -0.1098   -0.3235 H       7  UNL7        0.0241
     55 H           5.4818   -1.6041    0.5639 H       7  UNL7        0.0241
     56 H           5.4818   -1.6041   -1.2109 H       7  UNL7        0.0241
     57 CL          8.2831   -0.3602    3.0570 Cl      8  UNL8       -0.1257
     58 C           6.7406   -1.2419    3.0570 C.3     8  UNL8        0.0198
     59 C           5.5761   -0.2741    3.0570 C.3     8  UNL8       -0.0517
     60 H           6.7160   -1.8790    2.1684 H       8  UNL8        0.0427
     61 H           6.7160   -1.8790    3.9455 H       8  UNL8        0.0427
     62 H           4.6292   -0.8234    3.0570 H       8  UNL8        0.0241
     63 H           5.5934    0.3671    3.9444 H       8  UNL8        0.0241
     64 H           5.5934    0.3671    2.1696 H       8  UNL8        0.0241
     65 CL          7.6831   -0.5602    6.4376 Cl      9  UNL9       -0.1257
     66 C           6.1406   -1.4419    6.4376 C.3     9  UNL9        0.0198
     67 C           4.9761   -0.4741    6.4376 C.3     9  UNL9       -0.0517
     68 H           6.1160   -2.0790    5.5490 H       9  UNL9        0.0427
     69 H           6.1160   -2.0790    7.3261 H       9  UNL9        0.0427
     70 H           4.0292   -1.0234    6.4376 H       9  UNL9        0.0241
     71 H           4.9934    0.1671    7.3250 H       9  UNL9        0.0241
     72 H           4.9934    0.1671    5.5502 H       9  UNL9        0.0241
     73 CL          8.4831    3.2190   -0.3235 Cl     10  UNL10      -0.1257
     74 C           6.9406    2.3373   -0.3235 C.3    10  UNL10       0.0198
     75 C           5.7761    3.3051   -0.3235 C.3    10  UNL10      -0.0517
     76 H           6.9160    1.7002   -1.2121 H      10  UNL10       0.0427
     77 H           6.9160    1.7002    0.5650 H      10  UNL10       0.0427
     78 H           4.8292    2.7558   -0.3235 H      10  UNL10       0.0241
     79 H           5.7934    3.9463    0.5639 H      10  UNL10       0.0241
     80 H           5.7934    3.9463   -1.2109 H      10  UNL10       0.0241
     81 CL          8.4831    3.2190    3.0570 Cl     11  UNL11      -0.1257
     82 C           6.9406    2.3373    3.0570 C.3    11  UNL11       0.0198
     83 C           5.7761    3.3051    3.0570 C.3    11  UNL11      -0.0517
     84 H           6.9160    1.7002    2.1684 H      11  UNL11       0.0427
     85 H           6.9160    1.7002    3.9455 H      11  UNL11       0.0427
     86 H           4.8292    2.7558    3.0570 H      11  UNL11       0.0241
     87 H           5.7934    3.9463    3.9444 H      11  UNL11       0.0241
     88 H           5.7934    3.9463    2.1696 H      11  UNL11       0.0241
     89 CL          7.4831    3.2190    6.4376 Cl     12  UNL12      -0.1257
     90 C           5.9406    2.3373    6.4376 C.3    12  UNL12       0.0198
     91 C           4.7761    3.3051    6.4376 C.3    12  UNL12      -0.0517
     92 H           5.9160    1.7002    5.5490 H      12  UNL12       0.0427
     93 H           5.9160    1.7002    7.3261 H      12  UNL12       0.0427
     94 H           3.8292    2.7558    6.4376 H      12  UNL12       0.0241
     95 H           4.7934    3.9463    7.3250 H      12  UNL12       0.0241
     96 H           4.7934    3.9463    5.5502 H      12  UNL12       0.0241
     97 CL          8.2831    6.9981    1.4570 Cl     13  UNL13      -0.1257
     98 C           6.7406    6.1164    1.4570 C.3    13  UNL13       0.0198
     99 C           5.5761    7.0842    1.4570 C.3    13  UNL13      -0.0517
    100 H           6.7160    5.4793    0.5684 H      13  UNL13       0.0427
    101 H           6.7160    5.4793    2.3455 H      13  UNL13       0.0427
    102 H           4.6292    6.5349    1.4570 H      13  UNL13       0.0241
    103 H           5.5934    7.7254    2.3444 H      13  UNL13       0.0241
    104 H           5.5934    7.7254    0.5696 H      13  UNL13       0.0241
    105 CL          8.4831    6.9981    5.0376 Cl     14  UNL14      -0.1257
    106 C           6.9406    6.1164    5.0376 C.3    14  UNL14       0.0198
    107 C           5.7761    7.0842    5.0376 C.3    14  UNL14      -0.0517
    108 H           6.9160    5.4793    4.1490 H      14  UNL14       0.0427
    109 H           6.9160    5.4793    5.9261 H      14  UNL14       0.0427
    110 H           4.8292    6.5349    5.0376 H      14  UNL14       0.0241
    111 H           5.7934    7.7254    5.9250 H      14  UNL14       0.0241
    112 H           5.7934    7.7254    4.1502 H      14  UNL14       0.0241
    113 CL         13.2686   -2.1421    2.3122 Cl     15  UNL15      -0.1257
    114 C          12.3781   -0.6689    2.7517 C.3    15  UNL15       0.0198
    115 C          11.0576   -1.0214    3.4033 C.3    15  UNL15      -0.0517
    116 H          13.0043   -0.0866    3.4335 H      15  UNL15       0.0427
    117 H          12.2179   -0.0866    1.8399 H      15  UNL15       0.0427
    118 H          10.5141   -0.1098    3.6715 H      15  UNL15       0.0241
    119 H          10.4243   -1.6041    2.7262 H      15  UNL15       0.0241
    120 H          11.2097   -1.6041    4.3178 H      15  UNL15       0.0241
    121 CL         13.8115   -0.3602    6.6376 Cl     16  UNL16      -0.1257
    122 C          12.2690   -1.2419    6.6376 C.3    16  UNL16       0.0198
    123 C          11.1045   -0.2741    6.6376 C.3    16  UNL16      -0.0517
    124 H          12.2444   -1.8790    5.7490 H      16  UNL16       0.0427
    125 H          12.2444   -1.8790    7.5261 H      16  UNL16       0.0427
    126 H          10.1576   -0.8234    6.6376 H      16  UNL16       0.0241
    127 H          11.1218    0.3671    7.5250 H      16  UNL16       0.0241
    128 H          11.1218    0.3671    5.7502 H      16  UNL16       0.0241
    129 CL         14.0115    3.2190    1.0570 Cl     17  UNL17      -0.1257
    130 C          12.4690    2.3373    1.0570 C.3    17  UNL17       0.0198
    131 C          11.3045    3.3051    1.0570 C.3    17  UNL17      -0.0517
    132 H          12.4444    1.7002    0.1684 H      17  UNL17       0.0427
    133 H          12.4444    1.7002    1.9455 H      17  UNL17       0.0427
    134 H          10.3576    2.7558    1.0570 H      17  UNL17       0.0241
    135 H          11.3218    3.9463    1.9444 H      17  UNL17       0.0241
    136 H          11.3218    3.9463    0.1696 H      17  UNL17       0.0241
    137 CL         14.0115    3.2190    5.4376 Cl     18  UNL18      -0.1257
    138 C          12.4690    2.3373    5.4376 C.3    18  UNL18       0.0198
    139 C          11.3045    3.3051    5.4376 C.3    18  UNL18      -0.0517
    140 H          12.4444    1.7002    4.5490 H      18  UNL18       0.0427
    141 H          12.4444    1.7002    6.3261 H      18  UNL18       0.0427
    142 H          10.3576    2.7558    5.4376 H      18  UNL18       0.0241
    143 H          11.3218    3.9463    6.3250 H      18  UNL18       0.0241
    144 H          11.3218    3.9463    4.5502 H      18  UNL18       0.0241
    145 CL         14.0115    6.9981   -0.3235 Cl     19  UNL19      -0.1257
    146 C          12.4690    6.1164   -0.3235 C.3    19  UNL19       0.0198
    147 C          11.3045    7.0842   -0.3235 C.3    19  UNL19      -0.0517
    148 H          12.4444    5.4793   -1.2121 H      19  UNL19       0.0427
    149 H          12.4444    5.4793    0.5650 H      19  UNL19       0.0427
    150 H          10.3576    6.5349   -0.3235 H      19  UNL19       0.0241
    151 H          11.3218    7.7254    0.5639 H      19  UNL19       0.0241
    152 H          11.3218    7.7254   -1.2109 H      19  UNL19       0.0241
    153 CL         10.2763    5.4163    3.0570 Cl     20  UNL20      -0.1257
    154 C          11.2693    6.8895    3.0570 C.3    20  UNL20       0.0198
    155 C          12.7419    6.5369    3.0570 C.3    20  UNL20      -0.0517
    156 H          11.0095    7.4717    2.1684 H      20  UNL20       0.0427
    157 H          11.0095    7.4717    3.9455 H      20  UNL20       0.0427
    158 H          13.3480    7.4486    3.0570 H      20  UNL20       0.0241
    159 H          13.0101    5.9543    3.9444 H      20  UNL20       0.0241
    160 H          13.0101    5.9543    2.1696 H      20  UNL20       0.0241
    161 CL         14.0115    6.9981    6.6376 Cl     21  UNL21      -0.1257
    162 C          12.4690    6.1164    6.6376 C.3    21  UNL21       0.0198
    163 C          11.3045    7.0842    6.6376 C.3    21  UNL21      -0.0517
    164 H          12.4444    5.4793    5.7490 H      21  UNL21       0.0427
    165 H          12.4444    5.4793    7.5261 H      21  UNL21       0.0427
    166 H          10.3576    6.5349    6.6376 H      21  UNL21       0.0241
    167 H          11.3218    7.7254    7.5250 H      21  UNL21       0.0241
    168 H          11.3218    7.7254    5.7502 H      21  UNL21       0.0241
    169 CL         17.7398   -1.2340    0.0337 Cl     22  UNL22      -0.1257
    170 C          16.1973   -0.4433   -0.3565 C.3    22  UNL22       0.0198
    171 C          15.0328   -1.3112    0.0718 C.3    22  UNL22      -0.0517
    172 H          16.1727    0.5212    0.1584 H      22  UNL22       0.0427
    173 H          16.1727   -0.2652   -1.4352 H      22  UNL22       0.0427
    174 H          14.0859   -0.8186   -0.1713 H      22  UNL22       0.0241
    175 H          15.0501   -2.2789   -0.4403 H      22  UNL22       0.0241
    176 H          15.0501   -1.4935    1.1513 H      22  UNL22       0.0241
    177 CL         19.5398   -0.5602    3.0570 Cl     23  UNL23      -0.1257
    178 C          17.9973   -1.4419    3.0570 C.3    23  UNL23       0.0198
    179 C          16.8328   -0.4741    3.0570 C.3    23  UNL23      -0.0517
    180 H          17.9727   -2.0790    2.1684 H      23  UNL23       0.0427
    181 H          17.9727   -2.0790    3.9455 H      23  UNL23       0.0427
    182 H          15.8859   -1.0234    3.0570 H      23  UNL23       0.0241
    183 H          16.8501    0.1671    3.9444 H      23  UNL23       0.0241
    184 H          16.8501    0.1671    2.1696 H      23  UNL23       0.0241
    185 CL         19.7398   -0.5602    6.4376 Cl     24  UNL24      -0.1257
    186 C          18.1973   -1.4419    6.4376 C.3    24  UNL24       0.0198
    187 C          17.0328   -0.4741    6.4376 C.3    24  UNL24      -0.0517
    188 H          18.1727   -2.0790    5.5490 H      24  UNL24       0.0427
    189 H          18.1727   -2.0790    7.3261 H      24  UNL24       0.0427
    190 H          16.0859   -1.0234    6.4376 H      24  UNL24       0.0241
    191 H          17.0501    0.1671    7.3250 H      24  UNL24       0.0241
    192 H          17.0501    0.1671    5.5502 H      24  UNL24       0.0241
    193 CL         19.5398    3.2190   -0.3235 Cl     25  UNL25      -0.1257
    194 C          17.9973    2.3373   -0.3235 C.3    25  UNL25       0.0198
    195 C          16.8328    3.3051   -0.3235 C.3    25  UNL25      -0.0517
    196 H          17.9727    1.7002   -1.2121 H      25  UNL25       0.0427
    197 H          17.9727    1.7002    0.5650 H      25  UNL25       0.0427
    198 H          15.8859    2.7558   -0.3235 H      25  UNL25       0.0241
    199 H          16.8501    3.9463    0.5639 H      25  UNL25       0.0241
    200 H          16.8501    3.9463   -1.2109 H      25  UNL25       0.0241
    201 CL         19.5398    3.2190    3.0570 Cl     26  UNL26      -0.1257
    202 C          17.9973    2.3373    3.0570 C.3    26  UNL26       0.0198
    203 C          16.8328    3.3051    3.0570 C.3    26  UNL26      -0.0517
    204 H          17.9727    1.7002    2.1684 H      26  UNL26       0.0427
    205 H          17.9727    1.7002    3.9455 H      26  UNL26       0.0427
    206 H          15.8859    2.7558    3.0570 H      26  UNL26       0.0241
    207 H          16.8501    3.9463    3.9444 H      26  UNL26       0.0241
    208 H          16.8501    3.9463    2.1696 H      26  UNL26       0.0241
    209 CL         19.7398    3.2190    6.4376 Cl     27  UNL27      -0.1257
    210 C          18.1973    2.3373    6.4376 C.3    27  UNL27       0.0198
    211 C          17.0328    3.3051    6.4376 C.3    27  UNL27      -0.0517
    212 H          18.1727    1.7002    5.5490 H      27  UNL27       0.0427
    213 H          18.1727    1.7002    7.3261 H      27  UNL27       0.0427
    214 H          16.0859    2.7558    6.4376 H      27  UNL27       0.0241
    215 H          17.0501    3.9463    7.3250 H      27  UNL27       0.0241
    216 H          17.0501    3.9463    5.5502 H      27  UNL27       0.0241
    217 CL         19.5398    6.9981    1.0570 Cl     28  UNL28      -0.1257
    218 C          17.9973    6.1164    1.0570 C.3    28  UNL28       0.0198
    219 C          16.8328    7.0842    1.0570 C.3    28  UNL28      -0.0517
    220 H          17.9727    5.4793    0.1684 H      28  UNL28       0.0427
    221 H          17.9727    5.4793    1.9455 H      28  UNL28       0.0427
    222 H          15.8859    6.5349    1.0570 H      28  UNL28       0.0241
    223 H          16.8501    7.7254    1.9444 H      28  UNL28       0.0241
    224 H          16.8501    7.7254    0.1696 H      28  UNL28       0.0241
    225 CL         15.2046    5.4163    4.4376 Cl     29  UNL29      -0.1257
    226 C          16.1977    6.8895    4.4376 C.3    29  UNL29       0.0198
    227 C          17.6702    6.5369    4.4376 C.3    29  UNL29      -0.0517
    228 H          15.9378    7.4717    3.5490 H      29  UNL29       0.0427
    229 H          15.9378    7.4717    5.3261 H      29  UNL29       0.0427
    230 H          18.2763    7.4486    4.4376 H      29  UNL29       0.0241
    231 H          17.9384    5.9543    5.3250 H      29  UNL29       0.0241
    232 H          17.9384    5.9543    3.5502 H      29  UNL29       0.0241
    233 CL         19.7398    6.9981    8.0181 Cl     30  UNL30      -0.1257
    234 C          18.1973    6.1164    8.0181 C.3    30  UNL30       0.0198
    235 C          17.0328    7.0842    8.0181 C.3    30  UNL30      -0.0517
    236 H          18.1727    5.4793    7.1295 H      30  UNL30       0.0427
    237 H          18.1727    5.4793    8.9066 H      30  UNL30       0.0427
    238 H          16.0859    6.5349    8.0181 H      30  UNL30       0.0241
    239 H          17.0501    7.7254    8.9055 H      30  UNL30       0.0241
    240 H          17.0501    7.7254    7.1307 H      30  UNL30       0.0241
    241 CL         25.0681   -0.1602    4.8376 Cl     31  UNL31      -0.1257
    242 C          23.5256   -1.0419    4.8376 C.3    31  UNL31       0.0198
    243 C          22.3611   -0.0741    4.8376 C.3    31  UNL31      -0.0517
    244 H          23.5010   -1.6790    3.9490 H      31  UNL31       0.0427
    245 H          23.5010   -1.6790    5.7261 H      31  UNL31       0.0427
    246 H          21.4142   -0.6234    4.8376 H      31  UNL31       0.0241
    247 H          22.3784    0.5671    5.7250 H      31  UNL31       0.0241
    248 H          22.3784    0.5671    3.9502 H      31  UNL31       0.0241
    249 CL         24.6681    3.4190    1.4570 Cl     32  UNL32      -0.1257
    250 C          23.1256    2.5373    1.4570 C.3    32  UNL32       0.0198
    251 C          21.9611    3.5051    1.4570 C.3    32  UNL32      -0.0517
    252 H          23.1010    1.9002    0.5684 H      32  UNL32       0.0427
    253 H          23.1010    1.9002    2.3455 H      32  UNL32       0.0427
    254 H          21.0142    2.9558    1.4570 H      32  UNL32       0.0241
    255 H          21.9784    4.1463    2.3444 H      32  UNL32       0.0241
    256 H          21.9784    4.1463    0.5696 H      32  UNL32       0.0241
    257 CL         25.2681    3.2190    4.8376 Cl     33  UNL33      -0.1257
    258 C          23.7256    2.3373    4.8376 C.3    33  UNL33       0.0198
    259 C          22.5611    3.3051    4.8376 C.3    33  UNL33      -0.0517
    260 H          23.7010    1.7002    3.9490 H      33  UNL33       0.0427
    261 H          23.7010    1.7002    5.7261 H      33  UNL33       0.0427
    262 H          21.6142    2.7558    4.8376 H      33  UNL33       0.0241
    263 H          22.5784    3.9463    5.7250 H      33  UNL33       0.0241
    264 H          22.5784    3.9463    3.9502 H      33  UNL33       0.0241
    265 CL         25.0681    7.1981   -0.3235 Cl     34  UNL34      -0.1257
    266 C          23.5256    6.3164   -0.3235 C.3    34  UNL34       0.0198
    267 C          22.3611    7.2842   -0.3235 C.3    34  UNL34      -0.0517
    268 H          23.5010    5.6793   -1.2121 H      34  UNL34       0.0427
    269 H          23.5010    5.6793    0.5650 H      34  UNL34       0.0427
    270 H          21.4142    6.7349   -0.3235 H      34  UNL34       0.0241
    271 H          22.3784    7.9254    0.5639 H      34  UNL34       0.0241
    272 H          22.3784    7.9254   -1.2109 H      34  UNL34       0.0241
    273 CL         25.0681    6.9981    3.0570 Cl     35  UNL35      -0.1257
    274 C          23.5256    6.1164    3.0570 C.3    35  UNL35       0.0198
    275 C          22.3611    7.0842    3.0570 C.3    35  UNL35      -0.0517
    276 H          23.5010    5.4793    2.1684 H      35  UNL35       0.0427
    277 H          23.5010    5.4793    3.9455 H      35  UNL35       0.0427
    278 H          21.4142    6.5349    3.0570 H      35  UNL35       0.0241
    279 H          22.3784    7.7254    3.9444 H      35  UNL35       0.0241
    280 H          22.3784    7.7254    2.1696 H      35  UNL35       0.0241
    281 CL         25.0681    6.9981    6.4376 Cl     36  UNL36      -0.1257
    282 C          23.5256    6.1164    6.4376 C.3    36  UNL36       0.0198
    283 C          22.3611    7.0842    6.4376 C.3    36  UNL36      -0.0517
    284 H          23.5010    5.4793    5.5490 H      36  UNL36       0.0427
    285 H          23.5010    5.4793    7.3261 H      36  UNL36       0.0427
    286 H          21.4142    6.5349    6.4376 H      36  UNL36       0.0241
    287 H          22.3784    7.7254    7.3250 H      36  UNL36       0.0241
    288 H          22.3784    7.7254    5.5502 H      36  UNL36       0.0241
    289 CL         24.8612   -2.1421   -0.3235 Cl     37  UNL37      -0.1257
    290 C          25.8543   -0.6689   -0.3235 C.3    37  UNL37       0.0198
    291 C          27.3268   -1.0214   -0.3235 C.3    37  UNL37      -0.0517
    292 H          25.5944   -0.0866   -1.2121 H      37  UNL37       0.0427
    293 H          25.5944   -0.0866    0.5650 H      37  UNL37       0.0427
    294 H          27.9329   -0.1098   -0.3235 H      37  UNL37       0.0241
    295 H          27.5951   -1.6041    0.5639 H      37  UNL37       0.0241
    296 H          27.5951   -1.6041   -1.2109 H      37  UNL37       0.0241
@<TRIPOS>BOND
     1     1     2    1
     2     2     3    1
     3     2     4    1
     4     2     5    1
     5     3     6    1
     6     3     7    1
     7     3     8    1
     8     9    10    1
     9    10    11    1
    10    10    12    1
    11    10    13    1
    12    11    14    1
    13    11    15    1
    14    11    16    1
    15    17    18    1
    16    18    19    1
    17    18    20    1
    18    18    21    1
    19    19    22    1
    20    19    23    1
    21    19    24    1
    22    25    26    1
    23    26    27    1
    24    26    28    1
    25    26    29    1
    26    27    30    1
    27    27    31    1
    28    27    32    1
    29    33    34    1
    30    34    35    1
    31    34    36    1
    32    34    37    1
    33    35    38    1
    34    35    39    1
    35    35    40    1
    36    41    42    1
    37    42    43    1
    38    42    44    1
    39    42    45    1
    40    43    46    1
    41    43    47    1
    42    43    48    1
    43    49    50    1
    44    50    51    1
    45    50    52    1
    46    50    53    1
    47    51    54    1
    48    51    55    1
    49    51    56    1
    50    57    58    1
    51    58    59    1
    52    58    60    1
    53    58    61    1
    54    59    62    1
    55    59    63    1
    56    59    64    1
    57    65    66    1
    58    66    67    1
    59    66    68    1
    60    66    69    1
    61    67    70    1
    62    67    71    1
    63    67    72    1
    64    73    74    1
    65    74    75    1
    66    74    76    1
    67    74    77    1
    68    75    78    1
    69    75    79    1
    70    75    80    1
    71    81    82    1
    72    82    83    1
    73    82    84    1
    74    82    85    1
    75    83    86    1
    76    83    87    1
    77    83    88    1
    78    89    90    1
    79    90    91    1
    80    90    92    1
    81    90    93    1
    82    91    94    1
    83    91    95    1
    84    91    96    1
    85    97    98    1
    86    98    99    1
    87    98   100    1
    88    98   101    1
    89    99   102    1
    90    99   103    1
    91    99   104    1
    92   105   106    1
    93   106   107    1
    94   106   108    1
    95   106   109    1
    96   107   110    1
    97   107   111    1
    98   107   112    1
    99   113   114    1
   100   114   115    1
   101   114   116    1
   102   114   117    1
   103   115   118    1
   104   115   119    1
   105   115   120    1
   106   121   122    1
   107   122   123    1
   108   122   124    1
   109   122   125    1
   110   123   126    1
   111   123   127    1
   112   123   128    1
   113   129   130    1
   114   130   131    1
   115   130   132    1
   116   130   133    1
   117   131   134    1
   118   131   135    1
   119   131   136    1
   120   137   138    1
   121   138   139    1
   122   138   140    1
   123   138   141    1
   124   139   142    1
   125   139   143    1
   126   139   144    1
   127   145   146    1
   128   146   147    1
   129   146   148    1
   130   146   149    1
   131   147   150    1
   132   147   151    1
   133   147   152    1
   134   153   154    1
   135   154   155    1
   136   154   156    1
   137   154   157    1
   138   155   158    1
   139   155   159    1
   140   155   160    1
   141   161   162    1
   142   162   163    1
   143   162   164    1
   144   162   165    1
   145   163   166    1
   146   163   167    1
   147   163   168    1
   148   169   170    1
   149   170   171    1
   150   170   172    1
   151   170   173    1
   152   171   174    1
   153   171   175    1
   154   171   176    1
   155   177   178    1
   156   178   179    1
   157   178   180    1
   158   178   181    1
   159   179   182    1
   160   179   183    1
   161   179   184    1
   162   185   186    1
   163   186   187    1
   164   186   188    1
   165   186   189    1
   166   187   190    1
   167   187   191    1
   168   187   192    1
   169   193   194    1
   170   194   195    1
   171   194   196    1
   172   194   197    1
   173   195   198    1
   174   195   199    1
   175   195   200    1
   176   201   202    1
   177   202   203    1
   178   202   204    1
   179   202   205    1
   180   203   206    1
   181   203   207    1
   182   203   208    1
   183   209   210    1
   184   210   211    1
   185   210   212    1
   186   210   213    1
   187   211   214    1
   188   211   215    1
   189   211   216    1
   190   217   218    1
   191   218   219    1
   192   218   220    1
   193   218   221    1
   194   219   222    1
   195   219   223    1
   196   219   224    1
   197   225   226    1
   198   226   227    1
   199   226   228    1
   200   226   229    1
   201   227   230    1
   202   227   231    1
   203   227   232    1
   204   233   234    1
   205   234   235    1
   206   234   236    1
   207   234   237    1
   208   235   238    1
   209   235   239    1
   210   235   240    1
   211   241   242    1
   212   242   243    1
   213   242   244    1
   214   242   245    1
   215   243   246    1
   216   243   247    1
   217   243   248    1
   218   249   250    1
   219   250   251    1
   220   250   252    1
   221   250   253    1
   222   251   254    1
   223   251   255    1
   224   251   256    1
   225   257   258    1
   226   258   259    1
   227   258   260    1
   228   258   261    1
   229   259   262    1
   230   259   263    1
   231   259   264    1
   232   265   266    1
   233   266   267    1
   234   266   268    1
   235   266   269    1
   236   267   270    1
   237   267   271    1
   238   267   272    1
   239   273   274    1
   240   274   275    1
   241   274   276    1
   242   274   277    1
   243   275   278    1
   244   275   279    1
   245   275   280    1
   246   281   282    1
   247   282   283    1
   248   282   284    1
   249   282   285    1
   250   283   286    1
   251   283   287    1
   252   283   288    1
   253   289   290    1
   254   290   291    1
   255   290   292    1
   256   290   293    1
   257   291   294    1
   258   291   295    1
   259   291   296    1
