@<TRIPOS>MOLECULE
*****
 1456 1274 0 0 0
SMALL
GASTEIGER

@<TRIPOS>ATOM
      1 CL         -0.3757    1.5894   13.7342 Cl      1  UNL1       -0.1257
      2 C          -1.5050    1.0334   14.9880 C.3     1  UNL1        0.0198
      3 C          -1.5454   -0.4796   15.0328 C.3     1  UNL1       -0.0517
      4 H          -1.1726    1.4415   15.9467 H       1  UNL1        0.0427
      5 H          -2.4931    1.4415   14.7574 H       1  UNL1        0.0427
      6 H          -2.2426   -0.8155   15.8069 H       1  UNL1        0.0241
      7 H          -1.8781   -0.8959   14.0763 H       1  UNL1        0.0241
      8 H          -0.5594   -0.8959   15.2641 H       1  UNL1        0.0241
      9 CL         -1.5131    6.8357   10.2798 Cl      2  UNL2       -0.1257
     10 C          -1.0006    5.2866    9.5765 C.3     2  UNL2        0.0198
     11 C          -2.0600    4.2274    9.7968 C.3     2  UNL2       -0.0517
     12 H          -0.8238    5.4428    8.5086 H       2  UNL2        0.0427
     13 H          -0.0578    4.9969   10.0489 H       2  UNL2        0.0427
     14 H          -1.7383    3.2760    9.3614 H       2  UNL2        0.0241
     15 H          -2.2423    4.0648   10.8641 H       2  UNL2        0.0241
     16 H          -3.0073    4.5101    9.3258 H       2  UNL2        0.0241
     17 CL          4.0363    1.6791   -0.5191 Cl      3  UNL3       -0.1257
     18 C           2.4938    0.8112   -0.3639 C.3     3  UNL3        0.0198
     19 C           1.3293    1.7638   -0.5343 C.3     3  UNL3       -0.0517
     20 H           2.4692    0.0276   -1.1265 H       3  UNL3        0.0427
     21 H           2.4692    0.3404    0.6229 H       3  UNL3        0.0427
     22 H           0.3824    1.2231   -0.4376 H       3  UNL3        0.0241
     23 H           1.3466    2.5513    0.2264 H       3  UNL3        0.0241
     24 H           1.3466    2.2388   -1.5207 H       3  UNL3        0.0241
     25 CL          3.1416    0.2711    4.2845 Cl      4  UNL4       -0.1257
     26 C           1.5991   -0.6106    4.2845 C.3     4  UNL4        0.0198
     27 C           0.4346    0.3572    4.2845 C.3     4  UNL4       -0.0517
     28 H           1.5745   -1.2477    3.3959 H       4  UNL4        0.0427
     29 H           1.5745   -1.2477    5.1730 H       4  UNL4        0.0427
     30 H          -0.5123   -0.1921    4.2845 H       4  UNL4        0.0241
     31 H           0.4519    0.9984    5.1719 H       4  UNL4        0.0241
     32 H           0.4519    0.9984    3.3971 H       4  UNL4        0.0241
     33 CL          0.1399    1.4603    8.2685 Cl      5  UNL5       -0.1257
     34 C           1.3921    0.1999    8.2685 C.3     5  UNL5        0.0198
     35 C           0.7601   -1.1761    8.2685 C.3     5  UNL5       -0.0517
     36 H           2.0137    0.3417    7.3799 H       5  UNL5        0.0427
     37 H           2.0137    0.3417    9.1570 H       5  UNL5        0.0427
     38 H           1.5366   -1.9477    8.2685 H       5  UNL5        0.0241
     39 H           0.1365   -1.3260    9.1559 H       5  UNL5        0.0241
     40 H           0.1365   -1.3260    7.3811 H       5  UNL5        0.0241
     41 CL          5.7759    0.3944   11.7998 Cl      6  UNL6       -0.1257
     42 C           4.2334   -0.4873   11.7998 C.3     6  UNL6        0.0198
     43 C           3.0689    0.4805   11.7998 C.3     6  UNL6       -0.0517
     44 H           4.2088   -1.1244   10.9112 H       6  UNL6        0.0427
     45 H           4.2088   -1.1244   12.6883 H       6  UNL6        0.0427
     46 H           2.1220   -0.0688   11.7998 H       6  UNL6        0.0241
     47 H           3.0862    1.1217   12.6872 H       6  UNL6        0.0241
     48 H           3.0862    1.1217   10.9124 H       6  UNL6        0.0241
     49 CL          5.0582    2.1733   15.7757 Cl      7  UNL7       -0.1257
     50 C           3.5157    1.3054   15.9309 C.3     7  UNL7        0.0198
     51 C           2.3512    2.2581   15.7605 C.3     7  UNL7       -0.0517
     52 H           3.4911    0.5218   15.1684 H       7  UNL7        0.0427
     53 H           3.4911    0.8347   16.9177 H       7  UNL7        0.0427
     54 H           1.4043    1.7174   15.8572 H       7  UNL7        0.0241
     55 H           2.3685    3.0455   16.5212 H       7  UNL7        0.0241
     56 H           2.3685    2.7331   14.7741 H       7  UNL7        0.0241
     57 CL          5.4810    0.1164   19.8910 Cl      8  UNL8       -0.1257
     58 C           3.9385   -0.7653   19.8910 C.3     8  UNL8        0.0198
     59 C           2.7740    0.2025   19.8910 C.3     8  UNL8       -0.0517
     60 H           3.9139   -1.4024   19.0024 H       8  UNL8        0.0427
     61 H           3.9139   -1.4024   20.7795 H       8  UNL8        0.0427
     62 H           1.8271   -0.3468   19.8910 H       8  UNL8        0.0241
     63 H           2.7913    0.8437   20.7784 H       8  UNL8        0.0241
     64 H           2.7913    0.8437   19.0036 H       8  UNL8        0.0241
     65 CL          3.3497    0.4389   24.8352 Cl      9  UNL9       -0.1257
     66 C           1.9043   -0.4290   24.2745 C.3     9  UNL9        0.0198
     67 C           0.9435    0.5237   23.5948 C.3     9  UNL9       -0.0517
     68 H           2.2280   -1.2126   23.5836 H       9  UNL9        0.0427
     69 H           1.4352   -0.8998   25.1429 H       9  UNL9        0.0427
     70 H           0.0556   -0.0171   23.2519 H       9  UNL9        0.0241
     71 H           0.6142    1.3111   24.2807 H       9  UNL9        0.0241
     72 H           1.4060    0.9986   22.7234 H       9  UNL9        0.0241
     73 CL          3.4968    1.8772   27.8118 Cl     10  UNL10      -0.1257
     74 C           1.9543    2.1063   28.6632 C.3    10  UNL10       0.0198
     75 C           0.7898    1.8548   27.7286 C.3    10  UNL10      -0.0517
     76 H           1.9297    1.4137   29.5093 H      10  UNL10       0.0427
     77 H           1.9297    3.1298   29.0476 H      10  UNL10       0.0427
     78 H          -0.1571    1.9975   28.2591 H      10  UNL10       0.0241
     79 H           0.8071    2.5451   26.8789 H      10  UNL10       0.0241
     80 H           0.8071    0.8313   27.3400 H      10  UNL10       0.0241
     81 CL          3.9647    1.7789   32.2118 Cl     11  UNL11      -0.1257
     82 C           2.4222    0.8972   32.2118 C.3    11  UNL11       0.0198
     83 C           1.2577    1.8650   32.2118 C.3    11  UNL11      -0.0517
     84 H           2.3976    0.2601   31.3232 H      11  UNL11       0.0427
     85 H           2.3976    0.2601   33.1003 H      11  UNL11       0.0427
     86 H           0.3108    1.3157   32.2118 H      11  UNL11       0.0241
     87 H           1.2750    2.5062   33.0992 H      11  UNL11       0.0241
     88 H           1.2750    2.5062   31.3244 H      11  UNL11       0.0241
     89 CL          2.9399    0.1926   36.1028 Cl     12  UNL12      -0.1257
     90 C           1.1653    0.1057   36.1028 C.3    12  UNL12       0.0198
     91 C           0.5659    1.4962   36.1028 C.3    12  UNL12      -0.0517
     92 H           0.8546   -0.4511   35.2142 H      12  UNL12       0.0427
     93 H           0.8546   -0.4511   36.9913 H      12  UNL12       0.0427
     94 H          -0.5271    1.4357   36.1028 H      12  UNL12       0.0241
     95 H           0.8719    2.0599   36.9902 H      12  UNL12       0.0241
     96 H           0.8719    2.0599   35.2154 H      12  UNL12       0.0241
     97 CL          6.1702    5.9085   -0.3054 Cl     13  UNL13      -0.1257
     98 C           4.6277    5.0268   -0.3054 C.3    13  UNL13       0.0198
     99 C           3.4632    5.9946   -0.3054 C.3    13  UNL13      -0.0517
    100 H           4.6031    4.3897   -1.1940 H      13  UNL13       0.0427
    101 H           4.6031    4.3897    0.5831 H      13  UNL13       0.0427
    102 H           2.5163    5.4453   -0.3054 H      13  UNL13       0.0241
    103 H           3.4805    6.6358    0.5820 H      13  UNL13       0.0241
    104 H           3.4805    6.6358   -1.1928 H      13  UNL13       0.0241
    105 CL          5.1295    4.4677    4.2922 Cl     14  UNL14      -0.1257
    106 C           3.5870    3.5860    4.2922 C.3    14  UNL14       0.0198
    107 C           2.4225    4.5538    4.2922 C.3    14  UNL14      -0.0517
    108 H           3.5624    2.9489    3.4036 H      14  UNL14       0.0427
    109 H           3.5624    2.9489    5.1807 H      14  UNL14       0.0427
    110 H           1.4756    4.0045    4.2922 H      14  UNL14       0.0241
    111 H           2.4398    5.1950    5.1796 H      14  UNL14       0.0241
    112 H           2.4398    5.1950    3.4048 H      14  UNL14       0.0241
    113 CL          5.7824    5.0596    8.0828 Cl     15  UNL15      -0.1257
    114 C           4.2399    4.1779    8.0828 C.3    15  UNL15       0.0198
    115 C           3.0754    5.1457    8.0828 C.3    15  UNL15      -0.0517
    116 H           4.2153    3.5408    7.1942 H      15  UNL15       0.0427
    117 H           4.2153    3.5408    8.9713 H      15  UNL15       0.0427
    118 H           2.1285    4.5964    8.0828 H      15  UNL15       0.0241
    119 H           3.0927    5.7869    8.9702 H      15  UNL15       0.0241
    120 H           3.0927    5.7869    7.1954 H      15  UNL15       0.0241
    121 CL          1.6362    3.7350   11.9622 Cl     16  UNL16      -0.1257
    122 C           2.0134    5.4712   11.9622 C.3    16  UNL16       0.0198
    123 C           3.5118    5.6888   11.9622 C.3    16  UNL16      -0.0517
    124 H           1.5565    5.9159   11.0736 H      16  UNL16       0.0427
    125 H           1.5565    5.9159   12.8507 H      16  UNL16       0.0427
    126 H           3.7374    6.7600   11.9622 H      16  UNL16       0.0241
    127 H           3.9767    5.2468   12.8496 H      16  UNL16       0.0241
    128 H           3.9767    5.2468   11.0748 H      16  UNL16       0.0241
    129 CL          5.4504    5.9357   15.4325 Cl     17  UNL17      -0.1257
    130 C           3.9079    6.1648   16.2839 C.3    17  UNL17       0.0198
    131 C           2.7434    5.9133   15.3493 C.3    17  UNL17      -0.0517
    132 H           3.8833    5.4722   17.1300 H      17  UNL17       0.0427
    133 H           3.8833    7.1883   16.6683 H      17  UNL17       0.0427
    134 H           1.7965    6.0560   15.8798 H      17  UNL17       0.0241
    135 H           2.7607    6.6037   14.4996 H      17  UNL17       0.0241
    136 H           2.7607    4.8898   14.9607 H      17  UNL17       0.0241
    137 CL          3.4820    3.5463   19.5725 Cl     18  UNL18      -0.1257
    138 C           1.7074    3.4594   19.5725 C.3    18  UNL18       0.0198
    139 C           1.1080    4.8499   19.5725 C.3    18  UNL18      -0.0517
    140 H           1.3968    2.9027   18.6839 H      18  UNL18       0.0427
    141 H           1.3968    2.9027   20.4610 H      18  UNL18       0.0427
    142 H           0.0150    4.7894   19.5725 H      18  UNL18       0.0241
    143 H           1.4140    5.4136   20.4599 H      18  UNL18       0.0241
    144 H           1.4140    5.4136   18.6851 H      18  UNL18       0.0241
    145 CL          5.5378    5.4649   24.0660 Cl     19  UNL19      -0.1257
    146 C           3.9953    6.0549   23.4109 C.3    19  UNL19       0.0198
    147 C           2.8308    5.4072   24.1300 C.3    19  UNL19      -0.0517
    148 H           3.9707    7.1416   23.5322 H      19  UNL19       0.0427
    149 H           3.9707    5.8211   22.3429 H      19  UNL19       0.0427
    150 H           1.8839    5.7749   23.7219 H      19  UNL19       0.0241
    151 H           2.8481    4.3187   24.0126 H      19  UNL19       0.0241
    152 H           2.8481    5.6375   25.2003 H      19  UNL19       0.0241
    153 CL          5.5631    6.3283   27.8902 Cl     20  UNL20      -0.1257
    154 C           4.0206    5.4466   27.8902 C.3    20  UNL20       0.0198
    155 C           2.8561    6.4144   27.8902 C.3    20  UNL20      -0.0517
    156 H           3.9960    4.8095   27.0016 H      20  UNL20       0.0427
    157 H           3.9960    4.8095   28.7787 H      20  UNL20       0.0427
    158 H           1.9092    5.8651   27.8902 H      20  UNL20       0.0241
    159 H           2.8734    7.0556   28.7777 H      20  UNL20       0.0241
    160 H           2.8734    7.0556   27.0029 H      20  UNL20       0.0241
    161 CL          2.8294    6.1992   32.5462 Cl     21  UNL21      -0.1257
    162 C           1.2869    5.3175   32.5462 C.3    21  UNL21       0.0198
    163 C           0.1224    6.2853   32.5462 C.3    21  UNL21      -0.0517
    164 H           1.2623    4.6804   31.6576 H      21  UNL21       0.0427
    165 H           1.2623    4.6804   33.4347 H      21  UNL21       0.0427
    166 H          -0.8245    5.7360   32.5462 H      21  UNL21       0.0241
    167 H           0.1397    6.9265   33.4336 H      21  UNL21       0.0241
    168 H           0.1397    6.9265   31.6588 H      21  UNL21       0.0241
    169 CL          5.5476    6.2154   36.1804 Cl     22  UNL22      -0.1257
    170 C           4.0051    5.3337   36.1804 C.3    22  UNL22       0.0198
    171 C           2.8406    6.3015   36.1804 C.3    22  UNL22      -0.0517
    172 H           3.9805    4.6966   35.2918 H      22  UNL22       0.0427
    173 H           3.9805    4.6966   37.0689 H      22  UNL22       0.0427
    174 H           1.8937    5.7522   36.1804 H      22  UNL22       0.0241
    175 H           2.8579    6.9427   37.0678 H      22  UNL22       0.0241
    176 H           2.8579    6.9427   35.2930 H      22  UNL22       0.0241
    177 CL          5.5735   10.3678   -0.0583 Cl     23  UNL23      -0.1257
    178 C           4.0310   10.5969   -0.9097 C.3    23  UNL23       0.0198
    179 C           2.8665   10.3455    0.0249 C.3    23  UNL23      -0.0517
    180 H           4.0064   11.6205   -1.2940 H      23  UNL23       0.0427
    181 H           4.0064    9.9045   -1.7557 H      23  UNL23       0.0427
    182 H           1.9196   10.4882   -0.5055 H      23  UNL23       0.0241
    183 H           2.8838    9.3220    0.4135 H      23  UNL23       0.0241
    184 H           2.8838   11.0358    0.8746 H      23  UNL23       0.0241
    185 CL          3.4401    9.3649    3.8427 Cl     24  UNL24      -0.1257
    186 C           1.8976    8.4832    3.8427 C.3    24  UNL24       0.0198
    187 C           0.7331    9.4510    3.8427 C.3    24  UNL24      -0.0517
    188 H           1.8730    7.8461    2.9541 H      24  UNL24       0.0427
    189 H           1.8730    7.8461    4.7312 H      24  UNL24       0.0427
    190 H          -0.2138    8.9017    3.8427 H      24  UNL24       0.0241
    191 H           0.7504   10.0922    4.7301 H      24  UNL24       0.0241
    192 H           0.7504   10.0922    2.9553 H      24  UNL24       0.0241
    193 CL          5.5464   10.4762    7.9512 Cl     25  UNL25      -0.1257
    194 C           4.0039    9.5945    7.9512 C.3    25  UNL25       0.0198
    195 C           2.8394   10.5623    7.9512 C.3    25  UNL25      -0.0517
    196 H           3.9793    8.9574    7.0626 H      25  UNL25       0.0427
    197 H           3.9793    8.9574    8.8397 H      25  UNL25       0.0427
    198 H           1.8925   10.0130    7.9512 H      25  UNL25       0.0241
    199 H           2.8567   11.2035    8.8386 H      25  UNL25       0.0241
    200 H           2.8567   11.2035    7.0638 H      25  UNL25       0.0241
    201 CL          5.7298   10.3315   11.9136 Cl     26  UNL26      -0.1257
    202 C           4.1873    9.4498   11.9136 C.3    26  UNL26       0.0198
    203 C           3.0228   10.4176   11.9136 C.3    26  UNL26      -0.0517
    204 H           4.1627    8.8127   11.0250 H      26  UNL26       0.0427
    205 H           4.1627    8.8127   12.8021 H      26  UNL26       0.0427
    206 H           2.0759    9.8683   11.9136 H      26  UNL26       0.0241
    207 H           3.0401   11.0588   12.8010 H      26  UNL26       0.0241
    208 H           3.0401   11.0588   11.0262 H      26  UNL26       0.0241
    209 CL          3.6021    9.9417   16.2768 Cl     27  UNL27      -0.1257
    210 C           2.0596   10.4694   15.5704 C.3    27  UNL27       0.0198
    211 C           0.8951    9.8902   16.3457 C.3    27  UNL27      -0.0517
    212 H           2.0350   11.5626   15.5918 H      27  UNL27       0.0427
    213 H           2.0350   10.1388   14.5282 H      27  UNL27       0.0427
    214 H          -0.0518   10.2189   15.9057 H      27  UNL27       0.0241
    215 H           0.9124    8.7955   16.3284 H      27  UNL27       0.0241
    216 H           0.9124   10.2174   17.3905 H      27  UNL27       0.0241
    217 CL          3.6246    6.9967   19.6057 Cl     28  UNL28      -0.1257
    218 C           3.1739    8.7154   19.6057 C.3    28  UNL28       0.0198
    219 C           4.4110    9.5884   19.6057 C.3    28  UNL28      -0.0517
    220 H           2.5651    8.9046   18.7171 H      28  UNL28       0.0427
    221 H           2.5651    8.9046   20.4942 H      28  UNL28       0.0427
    222 H           4.1266   10.6455   19.6057 H      28  UNL28       0.0241
    223 H           5.0257    9.4051   20.4931 H      28  UNL28       0.0241
    224 H           5.0257    9.4051   18.7183 H      28  UNL28       0.0241
    225 CL          3.5329   10.3852   23.7001 Cl     29  UNL29      -0.1257
    226 C           1.9904    9.5173   23.8553 C.3    29  UNL29       0.0198
    227 C           0.8259   10.4700   23.6849 C.3    29  UNL29      -0.0517
    228 H           1.9658    8.7337   23.0927 H      29  UNL29       0.0427
    229 H           1.9658    9.0465   24.8421 H      29  UNL29       0.0427
    230 H          -0.1210    9.9292   23.7816 H      29  UNL29       0.0241
    231 H           0.8432   11.2574   24.4456 H      29  UNL29       0.0241
    232 H           0.8432   10.9449   22.6985 H      29  UNL29       0.0241
    233 CL          5.5639   10.4651   27.9527 Cl     30  UNL30      -0.1257
    234 C           4.0214    9.5834   27.9527 C.3    30  UNL30       0.0198
    235 C           2.8569   10.5512   27.9527 C.3    30  UNL30      -0.0517
    236 H           3.9968    8.9463   27.0641 H      30  UNL30       0.0427
    237 H           3.9968    8.9463   28.8412 H      30  UNL30       0.0427
    238 H           1.9100   10.0019   27.9527 H      30  UNL30       0.0241
    239 H           2.8742   11.1924   28.8401 H      30  UNL30       0.0241
    240 H           2.8742   11.1924   27.0653 H      30  UNL30       0.0241
    241 CL          5.5654   10.6656   31.9205 Cl     31  UNL31      -0.1257
    242 C           4.0229    9.7839   31.9205 C.3    31  UNL31       0.0198
    243 C           2.8584   10.7517   31.9205 C.3    31  UNL31      -0.0517
    244 H           3.9983    9.1468   31.0319 H      31  UNL31       0.0427
    245 H           3.9983    9.1468   32.8090 H      31  UNL31       0.0427
    246 H           1.9115   10.2024   31.9205 H      31  UNL31       0.0241
    247 H           2.8757   11.3929   32.8079 H      31  UNL31       0.0241
    248 H           2.8757   11.3929   31.0331 H      31  UNL31       0.0241
    249 CL          3.5206   10.4631   36.0504 Cl     32  UNL32      -0.1257
    250 C           1.9781    9.5814   36.0504 C.3    32  UNL32       0.0198
    251 C           0.8136   10.5492   36.0504 C.3    32  UNL32      -0.0517
    252 H           1.9535    8.9443   35.1618 H      32  UNL32       0.0427
    253 H           1.9535    8.9443   36.9389 H      32  UNL32       0.0427
    254 H          -0.1333    9.9999   36.0504 H      32  UNL32       0.0241
    255 H           0.8309   11.1904   36.9378 H      32  UNL32       0.0241
    256 H           0.8309   11.1904   35.1630 H      32  UNL32       0.0241
    257 CL          6.5367   14.9058    0.4876 Cl     33  UNL33      -0.1257
    258 C           4.9942   14.0241    0.4876 C.3    33  UNL33       0.0198
    259 C           3.8297   14.9920    0.4876 C.3    33  UNL33      -0.0517
    260 H           4.9696   13.3870   -0.4010 H      33  UNL33       0.0427
    261 H           4.9696   13.3870    1.3761 H      33  UNL33       0.0427
    262 H           2.8828   14.4426    0.4876 H      33  UNL33       0.0241
    263 H           3.8470   15.6331    1.3750 H      33  UNL33       0.0241
    264 H           3.8470   15.6331   -0.3998 H      33  UNL33       0.0241
    265 CL          5.5779   14.7890    4.2406 Cl     34  UNL34      -0.1257
    266 C           4.0354   13.9073    4.2406 C.3    34  UNL34       0.0198
    267 C           2.8709   14.8751    4.2406 C.3    34  UNL34      -0.0517
    268 H           4.0108   13.2702    3.3520 H      34  UNL34       0.0427
    269 H           4.0108   13.2702    5.1291 H      34  UNL34       0.0427
    270 H           1.9240   14.3258    4.2406 H      34  UNL34       0.0241
    271 H           2.8882   15.5163    5.1280 H      34  UNL34       0.0241
    272 H           2.8882   15.5163    3.3532 H      34  UNL34       0.0241
    273 CL          3.4988   14.7176    8.0102 Cl     35  UNL35      -0.1257
    274 C           1.9563   13.8359    8.0102 C.3    35  UNL35       0.0198
    275 C           0.7918   14.8037    8.0102 C.3    35  UNL35      -0.0517
    276 H           1.9317   13.1988    7.1216 H      35  UNL35       0.0427
    277 H           1.9317   13.1988    8.8987 H      35  UNL35       0.0427
    278 H          -0.1551   14.2544    8.0102 H      35  UNL35       0.0241
    279 H           0.8091   15.4449    8.8976 H      35  UNL35       0.0241
    280 H           0.8091   15.4449    7.1229 H      35  UNL35       0.0241
    281 CL          3.5578   15.1452   11.9426 Cl     36  UNL36      -0.1257
    282 C           2.0153   14.2635   11.9426 C.3    36  UNL36       0.0198
    283 C           0.8508   15.2313   11.9426 C.3    36  UNL36      -0.0517
    284 H           1.9907   13.6264   11.0540 H      36  UNL36       0.0427
    285 H           1.9907   13.6264   12.8311 H      36  UNL36       0.0427
    286 H          -0.0961   14.6820   11.9426 H      36  UNL36       0.0241
    287 H           0.8681   15.8725   12.8300 H      36  UNL36       0.0241
    288 H           0.8681   15.8725   11.0552 H      36  UNL36       0.0241
    289 CL          3.5005   15.2057   15.9178 Cl     37  UNL37      -0.1257
    290 C           1.9580   14.3240   15.9178 C.3    37  UNL37       0.0198
    291 C           0.7935   15.2918   15.9178 C.3    37  UNL37      -0.0517
    292 H           1.9334   13.6869   15.0292 H      37  UNL37       0.0427
    293 H           1.9334   13.6869   16.8063 H      37  UNL37       0.0427
    294 H          -0.1534   14.7425   15.9178 H      37  UNL37       0.0241
    295 H           0.8108   15.9330   16.8052 H      37  UNL37       0.0241
    296 H           0.8108   15.9330   15.0304 H      37  UNL37       0.0241
    297 CL          3.5100   14.7829   19.8515 Cl     38  UNL38      -0.1257
    298 C           1.9675   13.9012   19.8515 C.3    38  UNL38       0.0198
    299 C           0.8030   14.8690   19.8515 C.3    38  UNL38      -0.0517
    300 H           1.9429   13.2641   18.9629 H      38  UNL38       0.0427
    301 H           1.9429   13.2641   20.7400 H      38  UNL38       0.0427
    302 H          -0.1439   14.3197   19.8515 H      38  UNL38       0.0241
    303 H           0.8203   15.5102   20.7389 H      38  UNL38       0.0241
    304 H           0.8203   15.5102   18.9641 H      38  UNL38       0.0241
    305 CL          5.8910   14.6159   23.5165 Cl     39  UNL39      -0.1257
    306 C           4.3485   13.7342   23.5165 C.3    39  UNL39       0.0198
    307 C           3.1840   14.7020   23.5165 C.3    39  UNL39      -0.0517
    308 H           4.3239   13.0971   22.6279 H      39  UNL39       0.0427
    309 H           4.3239   13.0971   24.4050 H      39  UNL39       0.0427
    310 H           2.2371   14.1527   23.5165 H      39  UNL39       0.0241
    311 H           3.2013   15.3432   24.4039 H      39  UNL39       0.0241
    312 H           3.2013   15.3432   22.6291 H      39  UNL39       0.0241
    313 CL          3.4721   14.6850   27.8817 Cl     40  UNL40      -0.1257
    314 C           1.9296   13.8033   27.8817 C.3    40  UNL40       0.0198
    315 C           0.7651   14.7711   27.8817 C.3    40  UNL40      -0.0517
    316 H           1.9050   13.1662   26.9931 H      40  UNL40       0.0427
    317 H           1.9050   13.1662   28.7702 H      40  UNL40       0.0427
    318 H          -0.1818   14.2218   27.8817 H      40  UNL40       0.0241
    319 H           0.7824   15.4123   28.7691 H      40  UNL40       0.0241
    320 H           0.7824   15.4123   26.9943 H      40  UNL40       0.0241
    321 CL          3.5264   14.9108   31.8460 Cl     41  UNL41      -0.1257
    322 C           1.9839   14.0291   31.8460 C.3    41  UNL41       0.0198
    323 C           0.8194   14.9969   31.8460 C.3    41  UNL41      -0.0517
    324 H           1.9593   13.3920   30.9574 H      41  UNL41       0.0427
    325 H           1.9593   13.3920   32.7345 H      41  UNL41       0.0427
    326 H          -0.1275   14.4476   31.8460 H      41  UNL41       0.0241
    327 H           0.8367   15.6381   32.7334 H      41  UNL41       0.0241
    328 H           0.8367   15.6381   30.9586 H      41  UNL41       0.0241
    329 CL          3.5388   15.1481   35.8099 Cl     42  UNL42      -0.1257
    330 C           1.9963   14.2664   35.8099 C.3    42  UNL42       0.0198
    331 C           0.8318   15.2342   35.8099 C.3    42  UNL42      -0.0517
    332 H           1.9717   13.6293   34.9213 H      42  UNL42       0.0427
    333 H           1.9717   13.6293   36.6984 H      42  UNL42       0.0427
    334 H          -0.1151   14.6849   35.8099 H      42  UNL42       0.0241
    335 H           0.8491   15.8754   36.6973 H      42  UNL42       0.0241
    336 H           0.8491   15.8754   34.9225 H      42  UNL42       0.0241
    337 CL          6.2790   19.1363   -0.8960 Cl     43  UNL43      -0.1257
    338 C           4.7365   18.2546   -0.8960 C.3    43  UNL43       0.0198
    339 C           3.5720   19.2224   -0.8960 C.3    43  UNL43      -0.0517
    340 H           4.7119   17.6175   -1.7846 H      43  UNL43       0.0427
    341 H           4.7119   17.6175   -0.0075 H      43  UNL43       0.0427
    342 H           2.6251   18.6731   -0.8960 H      43  UNL43       0.0241
    343 H           3.5893   19.8636   -0.0086 H      43  UNL43       0.0241
    344 H           3.5893   19.8636   -1.7834 H      43  UNL43       0.0241
    345 CL          0.1636   19.0151    1.6284 Cl     44  UNL44      -0.1257
    346 C           1.3255   19.4101    2.9131 C.3    44  UNL44       0.0198
    347 C           0.7926   18.9765    4.2624 C.3    44  UNL44      -0.0517
    348 H           2.2664   18.9012    2.6855 H      44  UNL44       0.0427
    349 H           1.4975   20.4899    2.8924 H      44  UNL44       0.0427
    350 H           1.5128   19.2226    5.0492 H      44  UNL44       0.0241
    351 H          -0.1494   19.4825    4.4980 H      44  UNL44       0.0241
    352 H           0.6185   17.8959    4.2914 H      44  UNL44       0.0241
    353 CL          5.5426   19.3946    7.9774 Cl     45  UNL45      -0.1257
    354 C           4.0001   18.5128    7.9774 C.3    45  UNL45       0.0198
    355 C           2.8356   19.4807    7.9774 C.3    45  UNL45      -0.0517
    356 H           3.9755   17.8757    7.0888 H      45  UNL45       0.0427
    357 H           3.9755   17.8757    8.8659 H      45  UNL45       0.0427
    358 H           1.8887   18.9314    7.9774 H      45  UNL45       0.0241
    359 H           2.8529   20.1218    8.8648 H      45  UNL45       0.0241
    360 H           2.8529   20.1218    7.0900 H      45  UNL45       0.0241
    361 CL          5.5919   19.3516   11.9536 Cl     46  UNL46      -0.1257
    362 C           4.0494   18.4699   11.9536 C.3    46  UNL46       0.0198
    363 C           2.8849   19.4377   11.9536 C.3    46  UNL46      -0.0517
    364 H           4.0248   17.8328   11.0650 H      46  UNL46       0.0427
    365 H           4.0248   17.8328   12.8421 H      46  UNL46       0.0427
    366 H           1.9380   18.8884   11.9536 H      46  UNL46       0.0241
    367 H           2.9022   20.0789   12.8410 H      46  UNL46       0.0241
    368 H           2.9022   20.0789   11.0662 H      46  UNL46       0.0241
    369 CL          5.5115   19.3892   15.9483 Cl     47  UNL47      -0.1257
    370 C           3.9690   18.5075   15.9483 C.3    47  UNL47       0.0198
    371 C           2.8045   19.4753   15.9483 C.3    47  UNL47      -0.0517
    372 H           3.9444   17.8704   15.0597 H      47  UNL47       0.0427
    373 H           3.9444   17.8704   16.8368 H      47  UNL47       0.0427
    374 H           1.8576   18.9260   15.9483 H      47  UNL47       0.0241
    375 H           2.8218   20.1165   16.8357 H      47  UNL47       0.0241
    376 H           2.8218   20.1165   15.0609 H      47  UNL47       0.0241
    377 CL          5.6078   19.0690   19.8995 Cl     48  UNL48      -0.1257
    378 C           4.0653   18.1873   19.8995 C.3    48  UNL48       0.0198
    379 C           2.9008   19.1551   19.8995 C.3    48  UNL48      -0.0517
    380 H           4.0407   17.5502   19.0109 H      48  UNL48       0.0427
    381 H           4.0407   17.5502   20.7880 H      48  UNL48       0.0427
    382 H           1.9539   18.6058   19.8995 H      48  UNL48       0.0241
    383 H           2.9181   19.7963   20.7869 H      48  UNL48       0.0241
    384 H           2.9181   19.7963   19.0121 H      48  UNL48       0.0241
    385 CL          5.5172   18.8871   23.9377 Cl     49  UNL49      -0.1257
    386 C           3.9747   18.0054   23.9377 C.3    49  UNL49       0.0198
    387 C           2.8102   18.9732   23.9377 C.3    49  UNL49      -0.0517
    388 H           3.9501   17.3683   23.0491 H      49  UNL49       0.0427
    389 H           3.9501   17.3683   24.8262 H      49  UNL49       0.0427
    390 H           1.8633   18.4239   23.9377 H      49  UNL49       0.0241
    391 H           2.8275   19.6144   24.8251 H      49  UNL49       0.0241
    392 H           2.8275   19.6144   23.0503 H      49  UNL49       0.0241
    393 CL          4.9972   19.0168   27.8485 Cl     50  UNL50      -0.1257
    394 C           3.4547   18.1351   27.8485 C.3    50  UNL50       0.0198
    395 C           2.2902   19.1029   27.8485 C.3    50  UNL50      -0.0517
    396 H           3.4301   17.4980   26.9599 H      50  UNL50       0.0427
    397 H           3.4301   17.4980   28.7370 H      50  UNL50       0.0427
    398 H           1.3433   18.5536   27.8485 H      50  UNL50       0.0241
    399 H           2.3075   19.7441   28.7359 H      50  UNL50       0.0241
    400 H           2.3075   19.7441   26.9611 H      50  UNL50       0.0241
    401 CL          5.5991   19.1105   31.8379 Cl     51  UNL51      -0.1257
    402 C           4.0566   18.2288   31.8379 C.3    51  UNL51       0.0198
    403 C           2.8921   19.1966   31.8379 C.3    51  UNL51      -0.0517
    404 H           4.0320   17.5917   30.9493 H      51  UNL51       0.0427
    405 H           4.0320   17.5917   32.7264 H      51  UNL51       0.0427
    406 H           1.9452   18.6473   31.8379 H      51  UNL51       0.0241
    407 H           2.9094   19.8378   32.7253 H      51  UNL51       0.0241
    408 H           2.9094   19.8378   30.9505 H      51  UNL51       0.0241
    409 CL          5.5527   19.3397   35.8020 Cl     52  UNL52      -0.1257
    410 C           4.0102   18.4580   35.8020 C.3    52  UNL52       0.0198
    411 C           2.8457   19.4258   35.8020 C.3    52  UNL52      -0.0517
    412 H           3.9856   17.8209   34.9134 H      52  UNL52       0.0427
    413 H           3.9856   17.8209   36.6905 H      52  UNL52       0.0427
    414 H           1.8988   18.8765   35.8020 H      52  UNL52       0.0241
    415 H           2.8630   20.0670   36.6894 H      52  UNL52       0.0241
    416 H           2.8630   20.0670   34.9146 H      52  UNL52       0.0241
    417 CL          5.8582   24.2751    3.7689 Cl     53  UNL53      -0.1257
    418 C           4.3157   23.4892    4.1685 C.3    53  UNL53       0.0198
    419 C           3.1512   24.3519    3.7299 C.3    53  UNL53      -0.0517
    420 H           4.2911   22.5185    3.6652 H      53  UNL53       0.0427
    421 H           4.2911   23.3240    5.2493 H      53  UNL53       0.0427
    422 H           2.2043   23.8622    3.9789 H      53  UNL53       0.0241
    423 H           3.1685   25.3256    4.2304 H      53  UNL53       0.0241
    424 H           3.1685   24.5213    2.6483 H      53  UNL53       0.0241
    425 CL          3.5274   23.6514    7.9751 Cl     54  UNL54      -0.1257
    426 C           1.9849   22.7697    7.9751 C.3    54  UNL54       0.0198
    427 C           0.8204   23.7375    7.9751 C.3    54  UNL54      -0.0517
    428 H           1.9603   22.1326    7.0865 H      54  UNL54       0.0427
    429 H           1.9603   22.1326    8.8636 H      54  UNL54       0.0427
    430 H          -0.1265   23.1882    7.9751 H      54  UNL54       0.0241
    431 H           0.8377   24.3787    8.8625 H      54  UNL54       0.0241
    432 H           0.8377   24.3787    7.0877 H      54  UNL54       0.0241
    433 CL          3.7011   23.6591   11.9438 Cl     55  UNL55      -0.1257
    434 C           2.1586   22.7774   11.9438 C.3    55  UNL55       0.0198
    435 C           0.9941   23.7452   11.9438 C.3    55  UNL55      -0.0517
    436 H           2.1340   22.1403   11.0552 H      55  UNL55       0.0427
    437 H           2.1340   22.1403   12.8323 H      55  UNL55       0.0427
    438 H           0.0472   23.1959   11.9438 H      55  UNL55       0.0241
    439 H           1.0114   24.3864   12.8312 H      55  UNL55       0.0241
    440 H           1.0114   24.3864   11.0564 H      55  UNL55       0.0241
    441 CL          3.5123   23.6527   15.9126 Cl     56  UNL56      -0.1257
    442 C           1.9698   22.7710   15.9126 C.3    56  UNL56       0.0198
    443 C           0.8053   23.7388   15.9126 C.3    56  UNL56      -0.0517
    444 H           1.9452   22.1339   15.0240 H      56  UNL56       0.0427
    445 H           1.9452   22.1339   16.8011 H      56  UNL56       0.0427
    446 H          -0.1416   23.1895   15.9126 H      56  UNL56       0.0241
    447 H           0.8226   24.3800   16.8000 H      56  UNL56       0.0241
    448 H           0.8226   24.3800   15.0252 H      56  UNL56       0.0241
    449 CL          5.5049   23.6160   19.5444 Cl     57  UNL57      -0.1257
    450 C           3.9624   23.8450   20.3958 C.3    57  UNL57       0.0198
    451 C           2.7979   23.5936   19.4613 C.3    57  UNL57      -0.0517
    452 H           3.9378   23.1525   21.2419 H      57  UNL57       0.0427
    453 H           3.9378   24.8686   20.7802 H      57  UNL57       0.0427
    454 H           1.8510   23.7363   19.9917 H      57  UNL57       0.0241
    455 H           2.8152   24.2839   18.6115 H      57  UNL57       0.0241
    456 H           2.8152   22.5701   19.0727 H      57  UNL57       0.0241
    457 CL          3.3961   23.2650   23.9240 Cl     58  UNL58      -0.1257
    458 C           1.8536   23.7927   23.2176 C.3    58  UNL58       0.0198
    459 C           0.6891   23.2135   23.9930 C.3    58  UNL58      -0.0517
    460 H           1.8290   24.8858   23.2390 H      58  UNL58       0.0427
    461 H           1.8290   23.4621   22.1755 H      58  UNL58       0.0427
    462 H          -0.2578   23.5422   23.5529 H      58  UNL58       0.0241
    463 H           0.7064   22.1188   23.9756 H      58  UNL58       0.0241
    464 H           0.7064   23.5407   25.0377 H      58  UNL58       0.0241
    465 CL          5.5858   24.0564   27.8554 Cl     59  UNL59      -0.1257
    466 C           4.0433   23.1747   27.8554 C.3    59  UNL59       0.0198
    467 C           2.8788   24.1425   27.8554 C.3    59  UNL59      -0.0517
    468 H           4.0187   22.5376   26.9668 H      59  UNL59       0.0427
    469 H           4.0187   22.5376   28.7439 H      59  UNL59       0.0427
    470 H           1.9319   23.5932   27.8554 H      59  UNL59       0.0241
    471 H           2.8961   24.7837   28.7428 H      59  UNL59       0.0241
    472 H           2.8961   24.7837   26.9680 H      59  UNL59       0.0241
    473 CL          5.6237   23.9709   31.8301 Cl     60  UNL60      -0.1257
    474 C           4.0812   23.0892   31.8301 C.3    60  UNL60       0.0198
    475 C           2.9167   24.0570   31.8301 C.3    60  UNL60      -0.0517
    476 H           4.0566   22.4521   30.9415 H      60  UNL60       0.0427
    477 H           4.0566   22.4521   32.7186 H      60  UNL60       0.0427
    478 H           1.9698   23.5077   31.8301 H      60  UNL60       0.0241
    479 H           2.9340   24.6982   32.7175 H      60  UNL60       0.0241
    480 H           2.9340   24.6982   30.9427 H      60  UNL60       0.0241
    481 CL          5.6174   28.1055   31.6647 Cl     61  UNL61      -0.1257
    482 C           4.0749   27.2238   31.6647 C.3    61  UNL61       0.0198
    483 C           2.9104   28.1916   31.6647 C.3    61  UNL61      -0.0517
    484 H           4.0503   26.5867   30.7761 H      61  UNL61       0.0427
    485 H           4.0503   26.5867   32.5532 H      61  UNL61       0.0427
    486 H           1.9635   27.6423   31.6647 H      61  UNL61       0.0241
    487 H           2.9277   28.8328   32.5521 H      61  UNL61       0.0241
    488 H           2.9277   28.8328   30.7773 H      61  UNL61       0.0241
    489 CL         10.0360    0.1313    0.4702 Cl     62  UNL62      -0.1257
    490 C           8.4935   -0.7504    0.4702 C.3    62  UNL62       0.0198
    491 C           7.3290    0.2174    0.4702 C.3    62  UNL62      -0.0517
    492 H           8.4689   -1.3875   -0.4184 H      62  UNL62       0.0427
    493 H           8.4689   -1.3875    1.3587 H      62  UNL62       0.0427
    494 H           6.3821   -0.3319    0.4702 H      62  UNL62       0.0241
    495 H           7.3463    0.8586    1.3576 H      62  UNL62       0.0241
    496 H           7.3463    0.8586   -0.4172 H      62  UNL62       0.0241
    497 CL          9.9256    0.8068    4.3363 Cl     63  UNL63      -0.1257
    498 C           8.3831   -0.0749    4.3363 C.3    63  UNL63       0.0198
    499 C           7.2186    0.8929    4.3363 C.3    63  UNL63      -0.0517
    500 H           8.3585   -0.7120    3.4477 H      63  UNL63       0.0427
    501 H           8.3585   -0.7120    5.2248 H      63  UNL63       0.0427
    502 H           6.2717    0.3436    4.3363 H      63  UNL63       0.0241
    503 H           7.2359    1.5341    5.2237 H      63  UNL63       0.0241
    504 H           7.2359    1.5341    3.4489 H      63  UNL63       0.0241
    505 CL          9.8208   -0.4063    7.9456 Cl     64  UNL64      -0.1257
    506 C           8.2783   -1.2880    7.9456 C.3    64  UNL64       0.0198
    507 C           7.1138   -0.3202    7.9456 C.3    64  UNL64      -0.0517
    508 H           8.2537   -1.9251    7.0570 H      64  UNL64       0.0427
    509 H           8.2537   -1.9251    8.8341 H      64  UNL64       0.0427
    510 H           6.1669   -0.8695    7.9456 H      64  UNL64       0.0241
    511 H           7.1311    0.3210    8.8330 H      64  UNL64       0.0241
    512 H           7.1311    0.3210    7.0582 H      64  UNL64       0.0241
    513 CL         12.3700    0.3424   11.5474 Cl     65  UNL65      -0.1257
    514 C          10.8275   -0.5393   11.5474 C.3    65  UNL65       0.0198
    515 C           9.6630    0.4285   11.5474 C.3    65  UNL65      -0.0517
    516 H          10.8029   -1.1764   10.6588 H      65  UNL65       0.0427
    517 H          10.8029   -1.1764   12.4359 H      65  UNL65       0.0427
    518 H           8.7161   -0.1208   11.5474 H      65  UNL65       0.0241
    519 H           9.6803    1.0697   12.4348 H      65  UNL65       0.0241
    520 H           9.6803    1.0697   10.6600 H      65  UNL65       0.0241
    521 CL         11.6127    0.7800   15.9367 Cl     66  UNL66      -0.1257
    522 C          10.0702   -0.1017   15.9367 C.3    66  UNL66       0.0198
    523 C           8.9057    0.8661   15.9367 C.3    66  UNL66      -0.0517
    524 H          10.0456   -0.7388   15.0481 H      66  UNL66       0.0427
    525 H          10.0456   -0.7388   16.8252 H      66  UNL66       0.0427
    526 H           7.9588    0.3168   15.9367 H      66  UNL66       0.0241
    527 H           8.9230    1.5073   16.8241 H      66  UNL66       0.0241
    528 H           8.9230    1.5073   15.0493 H      66  UNL66       0.0241
    529 CL         12.6269    0.7854   20.7116 Cl     67  UNL67      -0.1257
    530 C          11.0844   -0.0963   20.7116 C.3    67  UNL67       0.0198
    531 C           9.9199    0.8715   20.7116 C.3    67  UNL67      -0.0517
    532 H          11.0598   -0.7334   19.8230 H      67  UNL67       0.0427
    533 H          11.0598   -0.7334   21.6001 H      67  UNL67       0.0427
    534 H           8.9730    0.3222   20.7116 H      67  UNL67       0.0241
    535 H           9.9372    1.5127   21.5990 H      67  UNL67       0.0241
    536 H           9.9372    1.5127   19.8242 H      67  UNL67       0.0241
    537 CL          8.7895    2.1926   24.1176 Cl     68  UNL68      -0.1257
    538 C           7.2470    2.4427   23.2722 C.3    68  UNL68       0.0198
    539 C           6.0825    2.1681   24.2002 C.3    68  UNL68      -0.0517
    540 H           7.2224    3.4755   22.9133 H      68  UNL68       0.0427
    541 H           7.2224    1.7714   22.4092 H      68  UNL68       0.0427
    542 H           5.1356    2.3240   23.6735 H      68  UNL68       0.0241
    543 H           6.0998    1.1353   24.5633 H      68  UNL68       0.0241
    544 H           6.0998    2.8372   25.0668 H      68  UNL68       0.0241
    545 CL         10.6274    1.1866   27.7130 Cl     69  UNL69      -0.1257
    546 C           9.0849    0.3049   27.7130 C.3    69  UNL69       0.0198
    547 C           7.9204    1.2727   27.7130 C.3    69  UNL69      -0.0517
    548 H           9.0603   -0.3322   26.8244 H      69  UNL69       0.0427
    549 H           9.0603   -0.3322   28.6015 H      69  UNL69       0.0427
    550 H           6.9735    0.7234   27.7130 H      69  UNL69       0.0241
    551 H           7.9377    1.9139   28.6004 H      69  UNL69       0.0241
    552 H           7.9377    1.9139   26.8256 H      69  UNL69       0.0241
    553 CL          9.8248    0.7860   32.1800 Cl     70  UNL70      -0.1257
    554 C           8.2823   -0.0957   32.1800 C.3    70  UNL70       0.0198
    555 C           7.1178    0.8721   32.1800 C.3    70  UNL70      -0.0517
    556 H           8.2577   -0.7328   31.2913 H      70  UNL70       0.0427
    557 H           8.2577   -0.7328   33.0684 H      70  UNL70       0.0427
    558 H           6.1709    0.3228   32.1799 H      70  UNL70       0.0241
    559 H           7.1351    1.5133   33.0673 H      70  UNL70       0.0241
    560 H           7.1351    1.5133   31.2925 H      70  UNL70       0.0241
    561 CL         12.7768    4.0382   -0.3129 Cl     71  UNL71      -0.1257
    562 C          11.2343    3.1703   -0.1577 C.3    71  UNL71       0.0198
    563 C          10.0698    4.1230   -0.3281 C.3    71  UNL71      -0.0517
    564 H          11.2097    2.3867   -0.9203 H      71  UNL71       0.0427
    565 H          11.2097    2.6996    0.8291 H      71  UNL71       0.0427
    566 H           9.1229    3.5823   -0.2314 H      71  UNL71       0.0241
    567 H          10.0871    4.9104    0.4326 H      71  UNL71       0.0241
    568 H          10.0871    4.5979   -1.3145 H      71  UNL71       0.0241
    569 CL         12.0893    5.0171    3.6363 Cl     72  UNL72      -0.1257
    570 C          10.5468    5.6072    4.2915 C.3    72  UNL72       0.0198
    571 C           9.3823    4.9595    3.5723 C.3    72  UNL72      -0.0517
    572 H          10.5222    5.3733    5.3595 H      72  UNL72       0.0427
    573 H          10.5222    6.6938    4.1702 H      72  UNL72       0.0427
    574 H           8.4354    5.3271    3.9805 H      72  UNL72       0.0241
    575 H           9.3996    5.1898    2.5020 H      72  UNL72       0.0241
    576 H           9.3996    3.8710    3.6898 H      72  UNL72       0.0241
    577 CL         12.1113    5.4757    7.9313 Cl     73  UNL73      -0.1257
    578 C          10.5688    4.5940    7.9313 C.3    73  UNL73       0.0198
    579 C           9.4043    5.5618    7.9313 C.3    73  UNL73      -0.0517
    580 H          10.5442    3.9569    7.0427 H      73  UNL73       0.0427
    581 H          10.5442    3.9569    8.8198 H      73  UNL73       0.0427
    582 H           8.4574    5.0125    7.9313 H      73  UNL73       0.0241
    583 H           9.4216    6.2030    8.8187 H      73  UNL73       0.0241
    584 H           9.4216    6.2030    7.0439 H      73  UNL73       0.0241
    585 CL         12.0327    5.4278   11.9042 Cl     74  UNL74      -0.1257
    586 C          10.4902    4.5461   11.9042 C.3    74  UNL74       0.0198
    587 C           9.3257    5.5139   11.9042 C.3    74  UNL74      -0.0517
    588 H          10.4656    3.9090   11.0156 H      74  UNL74       0.0427
    589 H          10.4656    3.9090   12.7927 H      74  UNL74       0.0427
    590 H           8.3788    4.9646   11.9042 H      74  UNL74       0.0241
    591 H           9.3430    6.1551   12.7916 H      74  UNL74       0.0241
    592 H           9.3430    6.1551   11.0168 H      74  UNL74       0.0241
    593 CL         11.4804    4.9826   15.7615 Cl     75  UNL75      -0.1257
    594 C           9.9379    4.1009   15.7615 C.3    75  UNL75       0.0198
    595 C           8.7734    5.0687   15.7615 C.3    75  UNL75      -0.0517
    596 H           9.9133    3.4638   14.8729 H      75  UNL75       0.0427
    597 H           9.9133    3.4638   16.6500 H      75  UNL75       0.0427
    598 H           7.8265    4.5194   15.7615 H      75  UNL75       0.0241
    599 H           8.7907    5.7099   16.6489 H      75  UNL75       0.0241
    600 H           8.7907    5.7099   14.8741 H      75  UNL75       0.0241
    601 CL         10.9555    5.1349   19.6673 Cl     76  UNL76      -0.1257
    602 C           9.4130    4.2532   19.6673 C.3    76  UNL76       0.0198
    603 C           8.2485    5.2210   19.6673 C.3    76  UNL76      -0.0517
    604 H           9.3884    3.6161   18.7787 H      76  UNL76       0.0427
    605 H           9.3884    3.6161   20.5558 H      76  UNL76       0.0427
    606 H           7.3016    4.6717   19.6673 H      76  UNL76       0.0241
    607 H           8.2658    5.8622   20.5547 H      76  UNL76       0.0241
    608 H           8.2658    5.8622   18.7799 H      76  UNL76       0.0241
    609 CL         12.0273    6.2223   23.9660 Cl     77  UNL77      -0.1257
    610 C          10.4848    5.3406   23.9660 C.3    77  UNL77       0.0198
    611 C           9.3203    6.3084   23.9660 C.3    77  UNL77      -0.0517
    612 H          10.4602    4.7035   23.0774 H      77  UNL77       0.0427
    613 H          10.4602    4.7035   24.8545 H      77  UNL77       0.0427
    614 H           8.3734    5.7591   23.9660 H      77  UNL77       0.0241
    615 H           9.3376    6.9496   24.8534 H      77  UNL77       0.0241
    616 H           9.3376    6.9496   23.0786 H      77  UNL77       0.0241
    617 CL         11.9994    6.1791   27.9420 Cl     78  UNL78      -0.1257
    618 C          10.4569    5.2974   27.9420 C.3    78  UNL78       0.0198
    619 C           9.2924    6.2652   27.9420 C.3    78  UNL78      -0.0517
    620 H          10.4323    4.6603   27.0534 H      78  UNL78       0.0427
    621 H          10.4323    4.6603   28.8305 H      78  UNL78       0.0427
    622 H           8.3455    5.7159   27.9420 H      78  UNL78       0.0241
    623 H           9.3097    6.9064   28.8294 H      78  UNL78       0.0241
    624 H           9.3097    6.9064   27.0546 H      78  UNL78       0.0241
    625 CL         11.2301    5.1423   31.4992 Cl     79  UNL79      -0.1257
    626 C           9.6876    4.2606   31.4992 C.3    79  UNL79       0.0198
    627 C           8.5231    5.2284   31.4992 C.3    79  UNL79      -0.0517
    628 H           9.6630    3.6235   30.6106 H      79  UNL79       0.0427
    629 H           9.6630    3.6235   32.3877 H      79  UNL79       0.0427
    630 H           7.5762    4.6791   31.4992 H      79  UNL79       0.0241
    631 H           8.5404    5.8696   32.3866 H      79  UNL79       0.0241
    632 H           8.5404    5.8696   30.6118 H      79  UNL79       0.0241
    633 CL         12.0100    6.2118   36.0477 Cl     80  UNL80      -0.1257
    634 C          10.4675    5.3301   36.0477 C.3    80  UNL80       0.0198
    635 C           9.3030    6.2979   36.0477 C.3    80  UNL80      -0.0517
    636 H          10.4429    4.6930   35.1591 H      80  UNL80       0.0427
    637 H          10.4429    4.6930   36.9362 H      80  UNL80       0.0427
    638 H           8.3561    5.7486   36.0477 H      80  UNL80       0.0241
    639 H           9.3203    6.9391   36.9351 H      80  UNL80       0.0241
    640 H           9.3203    6.9391   35.1603 H      80  UNL80       0.0241
    641 CL          9.8636   10.2653    3.2570 Cl     81  UNL81      -0.1257
    642 C           8.3211    9.3974    3.4123 C.3    81  UNL81       0.0198
    643 C           7.1566   10.3501    3.2419 C.3    81  UNL81      -0.0517
    644 H           8.2965    8.6138    2.6497 H      81  UNL81       0.0427
    645 H           8.2965    8.9267    4.3990 H      81  UNL81       0.0427
    646 H           6.2097    9.8094    3.3386 H      81  UNL81       0.0241
    647 H           7.1739   11.1375    4.0025 H      81  UNL81       0.0241
    648 H           7.1739   10.8250    2.2555 H      81  UNL81       0.0241
    649 CL         12.0414   10.7146    7.9637 Cl     82  UNL82      -0.1257
    650 C          10.4989    9.8329    7.9637 C.3    82  UNL82       0.0198
    651 C           9.3344   10.8007    7.9637 C.3    82  UNL82      -0.0517
    652 H          10.4743    9.1958    7.0751 H      82  UNL82       0.0427
    653 H          10.4743    9.1958    8.8522 H      82  UNL82       0.0427
    654 H           8.3875   10.2514    7.9637 H      82  UNL82       0.0241
    655 H           9.3517   11.4419    8.8511 H      82  UNL82       0.0241
    656 H           9.3517   11.4419    7.0763 H      82  UNL82       0.0241
    657 CL         12.2315   10.6836   11.9304 Cl     83  UNL83      -0.1257
    658 C          10.6890    9.8019   11.9304 C.3    83  UNL83       0.0198
    659 C           9.5245   10.7697   11.9304 C.3    83  UNL83      -0.0517
    660 H          10.6644    9.1648   11.0418 H      83  UNL83       0.0427
    661 H          10.6644    9.1648   12.8189 H      83  UNL83       0.0427
    662 H           8.5776   10.2204   11.9304 H      83  UNL83       0.0241
    663 H           9.5418   11.4109   12.8178 H      83  UNL83       0.0241
    664 H           9.5418   11.4109   11.0430 H      83  UNL83       0.0241
    665 CL         10.9764    9.3060   16.0781 Cl     84  UNL84      -0.1257
    666 C           9.4339    8.4243   16.0781 C.3    84  UNL84       0.0198
    667 C           8.2694    9.3921   16.0781 C.3    84  UNL84      -0.0517
    668 H           9.4093    7.7872   15.1895 H      84  UNL84       0.0427
    669 H           9.4093    7.7872   16.9666 H      84  UNL84       0.0427
    670 H           7.3225    8.8428   16.0781 H      84  UNL84       0.0241
    671 H           8.2867   10.0333   16.9655 H      84  UNL84       0.0241
    672 H           8.2867   10.0333   15.1907 H      84  UNL84       0.0241
    673 CL         12.1078   10.7173   19.7806 Cl     85  UNL85      -0.1257
    674 C          10.5653    9.8356   19.7806 C.3    85  UNL85       0.0198
    675 C           9.4008   10.8034   19.7806 C.3    85  UNL85      -0.0517
    676 H          10.5407    9.1985   18.8920 H      85  UNL85       0.0427
    677 H          10.5407    9.1985   20.6691 H      85  UNL85       0.0427
    678 H           8.4539   10.2541   19.7806 H      85  UNL85       0.0241
    679 H           9.4181   11.4446   20.6680 H      85  UNL85       0.0241
    680 H           9.4181   11.4446   18.8932 H      85  UNL85       0.0241
    681 CL         10.0056   10.4414   23.5917 Cl     86  UNL86      -0.1257
    682 C           8.4631    9.5597   23.5917 C.3    86  UNL86       0.0198
    683 C           7.2986   10.5275   23.5917 C.3    86  UNL86      -0.0517
    684 H           8.4385    8.9226   22.7031 H      86  UNL86       0.0427
    685 H           8.4385    8.9226   24.4802 H      86  UNL86       0.0427
    686 H           6.3517    9.9782   23.5917 H      86  UNL86       0.0241
    687 H           7.3159   11.1687   24.4791 H      86  UNL86       0.0241
    688 H           7.3159   11.1687   22.7043 H      86  UNL86       0.0241
    689 CL         12.0004   10.3159   27.8845 Cl     87  UNL87      -0.1257
    690 C          10.4579    9.4342   27.8845 C.3    87  UNL87       0.0198
    691 C           9.2934   10.4020   27.8845 C.3    87  UNL87      -0.0517
    692 H          10.4333    8.7971   26.9959 H      87  UNL87       0.0427
    693 H          10.4333    8.7971   28.7730 H      87  UNL87       0.0427
    694 H           8.3465    9.8527   27.8845 H      87  UNL87       0.0241
    695 H           9.3107   11.0432   28.7719 H      87  UNL87       0.0241
    696 H           9.3107   11.0432   26.9971 H      87  UNL87       0.0241
    697 CL         12.0290   10.6580   31.8347 Cl     88  UNL88      -0.1257
    698 C          10.4865    9.7763   31.8347 C.3    88  UNL88       0.0198
    699 C           9.3220   10.7441   31.8347 C.3    88  UNL88      -0.0517
    700 H          10.4619    9.1392   30.9461 H      88  UNL88       0.0427
    701 H          10.4619    9.1392   32.7232 H      88  UNL88       0.0427
    702 H           8.3751   10.1948   31.8347 H      88  UNL88       0.0241
    703 H           9.3393   11.3853   32.7221 H      88  UNL88       0.0241
    704 H           9.3393   11.3853   30.9473 H      88  UNL88       0.0241
    705 CL          9.9812   10.4565   36.2040 Cl     89  UNL89      -0.1257
    706 C           8.4387    9.5748   36.2040 C.3    89  UNL89       0.0198
    707 C           7.2742   10.5426   36.2040 C.3    89  UNL89      -0.0517
    708 H           8.4141    8.9377   35.3154 H      89  UNL89       0.0427
    709 H           8.4141    8.9377   37.0925 H      89  UNL89       0.0427
    710 H           6.3273    9.9933   36.2040 H      89  UNL89       0.0241
    711 H           7.2915   11.1838   37.0914 H      89  UNL89       0.0241
    712 H           7.2915   11.1838   35.3166 H      89  UNL89       0.0241
    713 CL         12.1554   12.9011   -0.6590 Cl     90  UNL90      -0.1257
    714 C          10.6129   12.0194   -0.6590 C.3    90  UNL90       0.0198
    715 C           9.4484   12.9872   -0.6590 C.3    90  UNL90      -0.0517
    716 H          10.5883   11.3823   -1.5476 H      90  UNL90       0.0427
    717 H          10.5883   11.3823    0.2295 H      90  UNL90       0.0427
    718 H           8.5015   12.4379   -0.6590 H      90  UNL90       0.0241
    719 H           9.4657   13.6284    0.2284 H      90  UNL90       0.0241
    720 H           9.4657   13.6284   -1.5464 H      90  UNL90       0.0241
    721 CL         12.0644   14.8418    3.5315 Cl     91  UNL91      -0.1257
    722 C          10.5219   15.0709    4.3829 C.3    91  UNL91       0.0198
    723 C           9.3574   14.8194    3.4483 C.3    91  UNL91      -0.0517
    724 H          10.4973   14.3783    5.2290 H      91  UNL91       0.0427
    725 H          10.4973   16.0944    4.7673 H      91  UNL91       0.0427
    726 H           8.4105   14.9622    3.9788 H      91  UNL91       0.0241
    727 H           9.3747   15.5098    2.5986 H      91  UNL91       0.0241
    728 H           9.3747   13.7959    3.0597 H      91  UNL91       0.0241
    729 CL          9.9944   14.9571    7.9739 Cl     92  UNL92      -0.1257
    730 C           8.4519   14.0754    7.9739 C.3    92  UNL92       0.0198
    731 C           7.2874   15.0432    7.9739 C.3    92  UNL92      -0.0517
    732 H           8.4273   13.4383    7.0853 H      92  UNL92       0.0427
    733 H           8.4273   13.4383    8.8624 H      92  UNL92       0.0427
    734 H           6.3405   14.4939    7.9739 H      92  UNL92       0.0241
    735 H           7.3047   15.6844    8.8613 H      92  UNL92       0.0241
    736 H           7.3047   15.6844    7.0865 H      92  UNL92       0.0241
    737 CL          9.9432   14.7957   11.9444 Cl     93  UNL93      -0.1257
    738 C           8.4007   13.9140   11.9444 C.3    93  UNL93       0.0198
    739 C           7.2362   14.8818   11.9444 C.3    93  UNL93      -0.0517
    740 H           8.3761   13.2769   11.0558 H      93  UNL93       0.0427
    741 H           8.3761   13.2769   12.8329 H      93  UNL93       0.0427
    742 H           6.2893   14.3325   11.9444 H      93  UNL93       0.0241
    743 H           7.2535   15.5230   12.8318 H      93  UNL93       0.0241
    744 H           7.2535   15.5230   11.0570 H      93  UNL93       0.0241
    745 CL          9.9732   15.2506   15.9363 Cl     94  UNL94      -0.1257
    746 C           8.4307   14.3689   15.9363 C.3    94  UNL94       0.0198
    747 C           7.2662   15.3367   15.9363 C.3    94  UNL94      -0.0517
    748 H           8.4061   13.7318   15.0477 H      94  UNL94       0.0427
    749 H           8.4061   13.7318   16.8248 H      94  UNL94       0.0427
    750 H           6.3193   14.7874   15.9363 H      94  UNL94       0.0241
    751 H           7.2835   15.9779   16.8237 H      94  UNL94       0.0241
    752 H           7.2835   15.9779   15.0489 H      94  UNL94       0.0241
    753 CL          9.9960   14.9267   19.8895 Cl     95  UNL95      -0.1257
    754 C           8.4535   14.0450   19.8895 C.3    95  UNL95       0.0198
    755 C           7.2890   15.0128   19.8895 C.3    95  UNL95      -0.0517
    756 H           8.4289   13.4079   19.0009 H      95  UNL95       0.0427
    757 H           8.4289   13.4079   20.7780 H      95  UNL95       0.0427
    758 H           6.3421   14.4635   19.8895 H      95  UNL95       0.0241
    759 H           7.3063   15.6540   20.7769 H      95  UNL95       0.0241
    760 H           7.3063   15.6540   19.0021 H      95  UNL95       0.0241
    761 CL         12.2958   14.7782   24.2079 Cl     96  UNL96      -0.1257
    762 C          10.7533   13.8965   24.2079 C.3    96  UNL96       0.0198
    763 C           9.5888   14.8643   24.2079 C.3    96  UNL96      -0.0517
    764 H          10.7287   13.2594   23.3193 H      96  UNL96       0.0427
    765 H          10.7287   13.2594   25.0964 H      96  UNL96       0.0427
    766 H           8.6419   14.3150   24.2079 H      96  UNL96       0.0241
    767 H           9.6061   15.5055   25.0953 H      96  UNL96       0.0241
    768 H           9.6061   15.5055   23.3205 H      96  UNL96       0.0241
    769 CL          9.9668   15.3739   27.9193 Cl     97  UNL97      -0.1257
    770 C           8.4243   14.4922   27.9193 C.3    97  UNL97       0.0198
    771 C           7.2598   15.4600   27.9193 C.3    97  UNL97      -0.0517
    772 H           8.3997   13.8551   27.0307 H      97  UNL97       0.0427
    773 H           8.3997   13.8551   28.8078 H      97  UNL97       0.0427
    774 H           6.3129   14.9107   27.9193 H      97  UNL97       0.0241
    775 H           7.2771   16.1012   28.8067 H      97  UNL97       0.0241
    776 H           7.2771   16.1012   27.0319 H      97  UNL97       0.0241
    777 CL          9.9958   14.9101   31.8469 Cl     98  UNL98      -0.1257
    778 C           8.4533   14.0284   31.8469 C.3    98  UNL98       0.0198
    779 C           7.2888   14.9962   31.8469 C.3    98  UNL98      -0.0517
    780 H           8.4287   13.3913   30.9583 H      98  UNL98       0.0427
    781 H           8.4287   13.3913   32.7354 H      98  UNL98       0.0427
    782 H           6.3419   14.4469   31.8469 H      98  UNL98       0.0241
    783 H           7.3061   15.6374   32.7343 H      98  UNL98       0.0241
    784 H           7.3061   15.6374   30.9595 H      98  UNL98       0.0241
    785 CL         10.0222   15.2708   35.7941 Cl     99  UNL99      -0.1257
    786 C           8.4797   14.3891   35.7941 C.3    99  UNL99       0.0198
    787 C           7.3152   15.3569   35.7941 C.3    99  UNL99      -0.0517
    788 H           8.4551   13.7520   34.9055 H      99  UNL99       0.0427
    789 H           8.4551   13.7520   36.6826 H      99  UNL99       0.0427
    790 H           6.3683   14.8076   35.7941 H      99  UNL99       0.0241
    791 H           7.3325   15.9981   36.6815 H      99  UNL99       0.0241
    792 H           7.3325   15.9981   34.9067 H      99  UNL99       0.0241
    793 CL          5.3667   19.0156    4.5146 Cl    100  UNL100     -0.1257
    794 C           7.0316   19.2447    3.9383 C.3   100  UNL100      0.0198
    795 C           7.1165   18.9932    2.4476 C.3   100  UNL100     -0.0517
    796 H           7.3337   20.2683    4.1773 H     100  UNL100      0.0427
    797 H           7.6767   18.5522    4.4863 H     100  UNL100      0.0427
    798 H           8.1444   19.1360    2.0990 H     100  UNL100      0.0241
    799 H           6.8162   17.9697    2.2004 H     100  UNL100      0.0241
    800 H           6.4736   19.6836    1.8918 H     100  UNL100      0.0241
    801 CL         12.0245   19.5531    8.0048 Cl    101  UNL101     -0.1257
    802 C          10.4820   18.6714    8.0048 C.3   101  UNL101      0.0198
    803 C           9.3175   19.6392    8.0048 C.3   101  UNL101     -0.0517
    804 H          10.4574   18.0343    7.1162 H     101  UNL101      0.0427
    805 H          10.4574   18.0343    8.8933 H     101  UNL101      0.0427
    806 H           8.3706   19.0899    8.0048 H     101  UNL101      0.0241
    807 H           9.3348   20.2804    8.8922 H     101  UNL101      0.0241
    808 H           9.3348   20.2804    7.1174 H     101  UNL101      0.0241
    809 CL         12.0813   19.5296   11.9791 Cl    102  UNL102     -0.1257
    810 C          10.5388   18.6479   11.9791 C.3   102  UNL102      0.0198
    811 C           9.3743   19.6157   11.9791 C.3   102  UNL102     -0.0517
    812 H          10.5142   18.0108   11.0905 H     102  UNL102      0.0427
    813 H          10.5142   18.0108   12.8676 H     102  UNL102      0.0427
    814 H           8.4274   19.0664   11.9791 H     102  UNL102      0.0241
    815 H           9.3916   20.2569   12.8665 H     102  UNL102      0.0241
    816 H           9.3916   20.2569   11.0917 H     102  UNL102      0.0241
    817 CL         11.9990   19.5476   15.9526 Cl    103  UNL103     -0.1257
    818 C          10.4565   18.6659   15.9526 C.3   103  UNL103      0.0198
    819 C           9.2920   19.6337   15.9526 C.3   103  UNL103     -0.0517
    820 H          10.4319   18.0288   15.0640 H     103  UNL103      0.0427
    821 H          10.4319   18.0288   16.8411 H     103  UNL103      0.0427
    822 H           8.3451   19.0844   15.9526 H     103  UNL103      0.0241
    823 H           9.3093   20.2749   16.8400 H     103  UNL103      0.0241
    824 H           9.3093   20.2749   15.0652 H     103  UNL103      0.0241
    825 CL         12.0939   19.2134   19.9022 Cl    104  UNL104     -0.1257
    826 C          10.5514   18.3317   19.9022 C.3   104  UNL104      0.0198
    827 C           9.3869   19.2995   19.9022 C.3   104  UNL104     -0.0517
    828 H          10.5268   17.6946   19.0136 H     104  UNL104      0.0427
    829 H          10.5268   17.6946   20.7907 H     104  UNL104      0.0427
    830 H           8.4400   18.7502   19.9022 H     104  UNL104      0.0241
    831 H           9.4042   19.9407   20.7896 H     104  UNL104      0.0241
    832 H           9.4042   19.9407   19.0148 H     104  UNL104      0.0241
    833 CL         12.0026   19.0332   23.8700 Cl    105  UNL105     -0.1257
    834 C          10.4601   18.1515   23.8700 C.3   105  UNL105      0.0198
    835 C           9.2956   19.1193   23.8700 C.3   105  UNL105     -0.0517
    836 H          10.4355   17.5144   22.9814 H     105  UNL105      0.0427
    837 H          10.4355   17.5144   24.7585 H     105  UNL105      0.0427
    838 H           8.3487   18.5700   23.8700 H     105  UNL105      0.0241
    839 H           9.3129   19.7605   24.7574 H     105  UNL105      0.0241
    840 H           9.3129   19.7605   22.9826 H     105  UNL105      0.0241
    841 CL         12.1881   19.5406   27.8573 Cl    106  UNL106     -0.1257
    842 C          10.6456   18.6589   27.8573 C.3   106  UNL106      0.0198
    843 C           9.4811   19.6267   27.8573 C.3   106  UNL106     -0.0517
    844 H          10.6210   18.0218   26.9687 H     106  UNL106      0.0427
    845 H          10.6210   18.0218   28.7458 H     106  UNL106      0.0427
    846 H           8.5342   19.0774   27.8573 H     106  UNL106      0.0241
    847 H           9.4984   20.2679   28.7447 H     106  UNL106      0.0241
    848 H           9.4984   20.2679   26.9699 H     106  UNL106      0.0241
    849 CL         12.0645   19.1048   31.8239 Cl    107  UNL107     -0.1257
    850 C          10.5220   18.2231   31.8239 C.3   107  UNL107      0.0198
    851 C           9.3575   19.1909   31.8239 C.3   107  UNL107     -0.0517
    852 H          10.4974   17.5860   30.9353 H     107  UNL107      0.0427
    853 H          10.4974   17.5860   32.7124 H     107  UNL107      0.0427
    854 H           8.4106   18.6416   31.8239 H     107  UNL107      0.0241
    855 H           9.3748   19.8321   32.7113 H     107  UNL107      0.0241
    856 H           9.3748   19.8321   30.9365 H     107  UNL107      0.0241
    857 CL         12.0241   19.5531   36.1508 Cl    108  UNL108     -0.1257
    858 C          10.4816   18.6714   36.1508 C.3   108  UNL108      0.0198
    859 C           9.3171   19.6392   36.1508 C.3   108  UNL108     -0.0517
    860 H          10.4570   18.0343   35.2622 H     108  UNL108      0.0427
    861 H          10.4570   18.0343   37.0393 H     108  UNL108      0.0427
    862 H           8.3702   19.0899   36.1508 H     108  UNL108      0.0241
    863 H           9.3344   20.2804   37.0382 H     108  UNL108      0.0241
    864 H           9.3344   20.2804   35.2634 H     108  UNL108      0.0241
    865 CL          9.4958   23.9143   -0.6991 Cl    109  UNL109     -0.1257
    866 C           7.9533   23.0436   -0.5600 C.3   109  UNL109      0.0198
    867 C           6.7888   23.9993   -0.7127 C.3   109  UNL109     -0.0517
    868 H           7.9287   22.2743   -1.3370 H     109  UNL109      0.0427
    869 H           7.9287   22.5547    0.4179 H     109  UNL109      0.0427
    870 H           5.8419   23.4569   -0.6260 H     109  UNL109      0.0241
    871 H           6.8061   24.7725    0.0624 H     109  UNL109      0.0241
    872 H           6.8061   24.4924   -1.6902 H     109  UNL109      0.0241
    873 CL         12.0957   23.2627    3.4093 Cl    110  UNL110     -0.1257
    874 C          10.5532   23.4918    2.5579 C.3   110  UNL110      0.0198
    875 C           9.3887   23.2403    3.4924 C.3   110  UNL110     -0.0517
    876 H          10.5286   24.5154    2.1735 H     110  UNL110      0.0427
    877 H          10.5286   22.7993    1.7118 H     110  UNL110      0.0427
    878 H           8.4418   23.3830    2.9620 H     110  UNL110      0.0241
    879 H           9.4060   22.2168    3.8810 H     110  UNL110      0.0241
    880 H           9.4060   23.9306    4.3422 H     110  UNL110      0.0241
    881 CL         10.0152   23.8123    7.9839 Cl    111  UNL111     -0.1257
    882 C           8.4727   22.9306    7.9839 C.3   111  UNL111      0.0198
    883 C           7.3082   23.8984    7.9839 C.3   111  UNL111     -0.0517
    884 H           8.4481   22.2935    7.0953 H     111  UNL111      0.0427
    885 H           8.4481   22.2935    8.8724 H     111  UNL111      0.0427
    886 H           6.3613   23.3491    7.9839 H     111  UNL111      0.0241
    887 H           7.3255   24.5396    8.8713 H     111  UNL111      0.0241
    888 H           7.3255   24.5396    7.0965 H     111  UNL111      0.0241
    889 CL         10.1909   23.8370   11.9516 Cl    112  UNL112     -0.1257
    890 C           8.6484   22.9553   11.9516 C.3   112  UNL112      0.0198
    891 C           7.4839   23.9231   11.9516 C.3   112  UNL112     -0.0517
    892 H           8.6238   22.3182   11.0630 H     112  UNL112      0.0427
    893 H           8.6238   22.3182   12.8401 H     112  UNL112      0.0427
    894 H           6.5370   23.3738   11.9516 H     112  UNL112      0.0241
    895 H           7.5012   24.5643   12.8390 H     112  UNL112      0.0241
    896 H           7.5012   24.5643   11.0642 H     112  UNL112      0.0241
    897 CL          9.9998   23.8112   15.9196 Cl    113  UNL113     -0.1257
    898 C           8.4573   22.9295   15.9196 C.3   113  UNL113      0.0198
    899 C           7.2928   23.8973   15.9196 C.3   113  UNL113     -0.0517
    900 H           8.4327   22.2924   15.0310 H     113  UNL113      0.0427
    901 H           8.4327   22.2924   16.8081 H     113  UNL113      0.0427
    902 H           6.3459   23.3480   15.9196 H     113  UNL113      0.0241
    903 H           7.3101   24.5385   16.8070 H     113  UNL113      0.0241
    904 H           7.3101   24.5385   15.0322 H     113  UNL113      0.0241
    905 CL         12.0732   24.0133   19.8205 Cl    114  UNL114     -0.1257
    906 C          10.5307   24.2424   20.6719 C.3   114  UNL114      0.0198
    907 C           9.3662   23.9909   19.7373 C.3   114  UNL114     -0.0517
    908 H          10.5061   23.5498   21.5180 H     114  UNL114      0.0427
    909 H          10.5061   25.2659   21.0563 H     114  UNL114      0.0427
    910 H           8.4193   24.1336   20.2678 H     114  UNL114      0.0241
    911 H           9.3835   24.6812   18.8876 H     114  UNL114      0.0241
    912 H           9.3835   22.9674   19.3487 H     114  UNL114      0.0241
    913 CL          9.8598   23.5306   24.2784 Cl    115  UNL115     -0.1257
    914 C           8.3173   23.9256   23.4902 C.3   115  UNL115      0.0198
    915 C           7.1528   23.4920   24.3554 C.3   115  UNL115     -0.0517
    916 H           8.2927   25.0055   23.3188 H     115  UNL115      0.0427
    917 H           8.2927   23.4168   22.5225 H     115  UNL115      0.0427
    918 H           6.2059   23.7381   23.8643 H     115  UNL115      0.0241
    919 H           7.1701   22.4114   24.5310 H     115  UNL115      0.0241
    920 H           7.1701   23.9980   25.3263 H     115  UNL115      0.0241
    921 CL         12.0861   24.4942   27.8814 Cl    116  UNL116     -0.1257
    922 C          10.5436   23.6125   27.8814 C.3   116  UNL116      0.0198
    923 C           9.3791   24.5803   27.8814 C.3   116  UNL116     -0.0517
    924 H          10.5190   22.9754   26.9928 H     116  UNL116      0.0427
    925 H          10.5190   22.9754   28.7699 H     116  UNL116      0.0427
    926 H           8.4322   24.0310   27.8814 H     116  UNL116      0.0241
    927 H           9.3964   25.2215   28.7688 H     116  UNL116      0.0241
    928 H           9.3964   25.2215   26.9940 H     116  UNL116      0.0241
    929 CL         12.0753   23.9685   31.7952 Cl    117  UNL117     -0.1257
    930 C          10.5328   23.0868   31.7952 C.3   117  UNL117      0.0198
    931 C           9.3683   24.0546   31.7952 C.3   117  UNL117     -0.0517
    932 H          10.5082   22.4497   30.9066 H     117  UNL117      0.0427
    933 H          10.5082   22.4497   32.6838 H     117  UNL117      0.0427
    934 H           8.4214   23.5053   31.7952 H     117  UNL117      0.0241
    935 H           9.3856   24.6958   32.6827 H     117  UNL117      0.0241
    936 H           9.3856   24.6958   30.9078 H     117  UNL117      0.0241
    937 CL         10.0205   23.8151   36.1559 Cl    118  UNL118     -0.1257
    938 C           8.4780   22.9334   36.1559 C.3   118  UNL118      0.0198
    939 C           7.3134   23.9012   36.1559 C.3   118  UNL118     -0.0517
    940 H           8.4534   22.2963   35.2673 H     118  UNL118      0.0427
    941 H           8.4534   22.2963   37.0444 H     118  UNL118      0.0427
    942 H           6.3666   23.3519   36.1559 H     118  UNL118      0.0241
    943 H           7.3308   24.5424   37.0433 H     118  UNL118      0.0241
    944 H           7.3308   24.5424   35.2685 H     118  UNL118      0.0241
    945 CL         12.0796   28.1037   31.8322 Cl    119  UNL119     -0.1257
    946 C          10.5371   27.2220   31.8322 C.3   119  UNL119      0.0198
    947 C           9.3726   28.1898   31.8322 C.3   119  UNL119     -0.0517
    948 H          10.5125   26.5849   30.9436 H     119  UNL119      0.0427
    949 H          10.5125   26.5849   32.7208 H     119  UNL119      0.0427
    950 H           8.4257   27.6405   31.8322 H     119  UNL119      0.0241
    951 H           9.3899   28.8310   32.7197 H     119  UNL119      0.0241
    952 H           9.3899   28.8310   30.9449 H     119  UNL119      0.0241
    953 CL         12.0613   28.0923   35.8093 Cl    120  UNL120     -0.1257
    954 C          10.5188   27.2106   35.8093 C.3   120  UNL120      0.0198
    955 C           9.3543   28.1784   35.8093 C.3   120  UNL120     -0.0517
    956 H          10.4942   26.5735   34.9207 H     120  UNL120      0.0427
    957 H          10.4942   26.5735   36.6978 H     120  UNL120      0.0427
    958 H           8.4074   27.6291   35.8093 H     120  UNL120      0.0241
    959 H           9.3716   28.8196   36.6967 H     120  UNL120      0.0241
    960 H           9.3716   28.8196   34.9219 H     120  UNL120      0.0241
    961 CL         16.6007    0.6384   -1.5893 Cl    121  UNL121     -0.1257
    962 C          17.0004    0.8675    0.1267 C.3   121  UNL121      0.0198
    963 C          18.4741    0.6160    0.3665 C.3   121  UNL121     -0.0517
    964 H          16.7312    1.8911    0.4022 H     121  UNL121      0.0427
    965 H          16.3882    0.1750    0.7112 H     121  UNL121      0.0427
    966 H          18.7137    0.7587    1.4251 H     121  UNL121      0.0241
    967 H          18.7513   -0.4075    0.0935 H     121  UNL121      0.0241
    968 H          19.0939    1.3063   -0.2151 H     121  UNL121      0.0241
    969 CL         16.3606    0.7875    4.7315 Cl    122  UNL122     -0.1257
    970 C          14.8181   -0.0942    4.7315 C.3   122  UNL122      0.0198
    971 C          13.6536    0.8737    4.7315 C.3   122  UNL122     -0.0517
    972 H          14.7935   -0.7313    3.8429 H     122  UNL122      0.0427
    973 H          14.7935   -0.7313    5.6200 H     122  UNL122      0.0427
    974 H          12.7067    0.3243    4.7315 H     122  UNL122      0.0241
    975 H          13.6709    1.5148    5.6189 H     122  UNL122      0.0241
    976 H          13.6709    1.5148    3.8441 H     122  UNL122      0.0241
    977 CL         19.6110    1.4340    8.0588 Cl    123  UNL123     -0.1257
    978 C          18.0685    0.5523    8.0588 C.3   123  UNL123      0.0198
    979 C          16.9040    1.5201    8.0588 C.3   123  UNL123     -0.0517
    980 H          18.0439   -0.0848    7.1702 H     123  UNL123      0.0427
    981 H          18.0439   -0.0848    8.9473 H     123  UNL123      0.0427
    982 H          15.9571    0.9708    8.0588 H     123  UNL123      0.0241
    983 H          16.9213    2.1613    8.9462 H     123  UNL123      0.0241
    984 H          16.9213    2.1613    7.1714 H     123  UNL123      0.0241
    985 CL         18.7758    1.4671   11.8708 Cl    124  UNL124     -0.1257
    986 C          17.2333    0.5854   11.8708 C.3   124  UNL124      0.0198
    987 C          16.0688    1.5532   11.8708 C.3   124  UNL124     -0.0517
    988 H          17.2087   -0.0517   10.9822 H     124  UNL124      0.0427
    989 H          17.2087   -0.0517   12.7593 H     124  UNL124      0.0427
    990 H          15.1219    1.0039   11.8708 H     124  UNL124      0.0241
    991 H          16.0861    2.1944   12.7582 H     124  UNL124      0.0241
    992 H          16.0861    2.1944   10.9834 H     124  UNL124      0.0241
    993 CL         18.7576    0.7874   16.0811 Cl    125  UNL125     -0.1257
    994 C          17.2151   -0.0943   16.0811 C.3   125  UNL125      0.0198
    995 C          16.0506    0.8735   16.0811 C.3   125  UNL125     -0.0517
    996 H          17.1905   -0.7314   15.1925 H     125  UNL125      0.0427
    997 H          17.1905   -0.7314   16.9696 H     125  UNL125      0.0427
    998 H          15.1037    0.3242   16.0811 H     125  UNL125      0.0241
    999 H          16.0679    1.5147   16.9685 H     125  UNL125      0.0241
   1000 H          16.0679    1.5147   15.1937 H     125  UNL125      0.0241
   1001 CL         19.0100    0.7718   20.0434 Cl    126  UNL126     -0.1257
   1002 C          17.4675   -0.1099   20.0434 C.3   126  UNL126      0.0198
   1003 C          16.3029    0.8579   20.0434 C.3   126  UNL126     -0.0517
   1004 H          17.4429   -0.7470   19.1548 H     126  UNL126      0.0427
   1005 H          17.4429   -0.7470   20.9319 H     126  UNL126      0.0427
   1006 H          15.3561    0.3086   20.0434 H     126  UNL126      0.0241
   1007 H          16.3203    1.4991   20.9308 H     126  UNL126      0.0241
   1008 H          16.3203    1.4991   19.1560 H     126  UNL126      0.0241
   1009 CL         14.7835    1.0328   24.2236 Cl    127  UNL127     -0.1257
   1010 C          13.2410    0.1511   24.2236 C.3   127  UNL127      0.0198
   1011 C          12.0765    1.1189   24.2236 C.3   127  UNL127     -0.0517
   1012 H          13.2164   -0.4860   23.3350 H     127  UNL127      0.0427
   1013 H          13.2164   -0.4860   25.1121 H     127  UNL127      0.0427
   1014 H          11.1296    0.5696   24.2236 H     127  UNL127      0.0241
   1015 H          12.0938    1.7601   25.1110 H     127  UNL127      0.0241
   1016 H          12.0938    1.7601   23.3362 H     127  UNL127      0.0241
   1017 CL         18.6983    0.0937   27.6756 Cl    128  UNL128     -0.1257
   1018 C          17.1558   -0.7880   27.6756 C.3   128  UNL128      0.0198
   1019 C          15.9912    0.1798   27.6756 C.3   128  UNL128     -0.0517
   1020 H          17.1312   -1.4251   26.7870 H     128  UNL128      0.0427
   1021 H          17.1312   -1.4251   28.5641 H     128  UNL128      0.0427
   1022 H          15.0443   -0.3695   27.6756 H     128  UNL128      0.0241
   1023 H          16.0086    0.8210   28.5630 H     128  UNL128      0.0241
   1024 H          16.0086    0.8210   26.7882 H     128  UNL128      0.0241
   1025 CL         16.3225    0.8347   32.5471 Cl    129  UNL129     -0.1257
   1026 C          14.7800    1.0637   31.6957 C.3   129  UNL129      0.0198
   1027 C          13.6155    0.8123   32.6302 C.3   129  UNL129     -0.0517
   1028 H          14.7554    2.0874   31.3113 H     129  UNL129      0.0427
   1029 H          14.7554    0.3713   30.8496 H     129  UNL129      0.0427
   1030 H          12.6686    0.9550   32.0998 H     129  UNL129      0.0241
   1031 H          13.6328   -0.2112   33.0188 H     129  UNL129      0.0241
   1032 H          13.6328    1.5026   33.4800 H     129  UNL129      0.0241
   1033 CL         18.7151    1.7698   36.1015 Cl    130  UNL130     -0.1257
   1034 C          17.1726    0.8881   36.1015 C.3   130  UNL130      0.0198
   1035 C          16.0081    1.8559   36.1015 C.3   130  UNL130     -0.0517
   1036 H          17.1480    0.2510   35.2129 H     130  UNL130      0.0427
   1037 H          17.1480    0.2510   36.9900 H     130  UNL130      0.0427
   1038 H          15.0612    1.3066   36.1015 H     130  UNL130      0.0241
   1039 H          16.0254    2.4971   36.9889 H     130  UNL130      0.0241
   1040 H          16.0254    2.4971   35.2141 H     130  UNL130      0.0241
   1041 CL         18.7105    6.0677   -0.5353 Cl    131  UNL131     -0.1257
   1042 C          17.1680    5.1860   -0.5353 C.3   131  UNL131      0.0198
   1043 C          16.0035    6.1538   -0.5353 C.3   131  UNL131     -0.0517
   1044 H          17.1434    4.5489   -1.4239 H     131  UNL131      0.0427
   1045 H          17.1434    4.5489    0.3532 H     131  UNL131      0.0427
   1046 H          15.0566    5.6045   -0.5353 H     131  UNL131      0.0241
   1047 H          16.0208    6.7950    0.3521 H     131  UNL131      0.0241
   1048 H          16.0208    6.7950   -1.4227 H     131  UNL131      0.0241
   1049 CL         18.5832    4.8418    4.1751 Cl    132  UNL132     -0.1257
   1050 C          17.0407    5.4319    3.5200 C.3   132  UNL132      0.0198
   1051 C          15.8761    4.7842    4.2391 C.3   132  UNL132     -0.0517
   1052 H          17.0161    6.5185    3.6413 H     132  UNL132      0.0427
   1053 H          17.0161    5.1981    2.4520 H     132  UNL132      0.0427
   1054 H          14.9292    5.1518    3.8309 H     132  UNL132      0.0241
   1055 H          15.8934    3.6957    4.1216 H     132  UNL132      0.0241
   1056 H          15.8934    5.0144    5.3094 H     132  UNL132      0.0241
   1057 CL         18.6144    5.8735    7.9480 Cl    133  UNL133     -0.1257
   1058 C          17.0719    4.9918    7.9480 C.3   133  UNL133      0.0198
   1059 C          15.9073    5.9596    7.9480 C.3   133  UNL133     -0.0517
   1060 H          17.0473    4.3547    7.0594 H     133  UNL133      0.0427
   1061 H          17.0473    4.3547    8.8365 H     133  UNL133      0.0427
   1062 H          14.9604    5.4103    7.9480 H     133  UNL133      0.0241
   1063 H          15.9246    6.6008    8.8354 H     133  UNL133      0.0241
   1064 H          15.9246    6.6008    7.0606 H     133  UNL133      0.0241
   1065 CL         18.5319    5.7296   11.9183 Cl    134  UNL134     -0.1257
   1066 C          16.9894    4.8479   11.9183 C.3   134  UNL134      0.0198
   1067 C          15.8249    5.8157   11.9183 C.3   134  UNL134     -0.0517
   1068 H          16.9648    4.2108   11.0297 H     134  UNL134      0.0427
   1069 H          16.9648    4.2108   12.8068 H     134  UNL134      0.0427
   1070 H          14.8780    5.2664   11.9183 H     134  UNL134      0.0241
   1071 H          15.8422    6.4569   12.8057 H     134  UNL134      0.0241
   1072 H          15.8422    6.4569   11.0309 H     134  UNL134      0.0241
   1073 CL         18.3566    6.1814   16.1220 Cl    135  UNL135     -0.1257
   1074 C          16.8141    5.2997   16.1220 C.3   135  UNL135      0.0198
   1075 C          15.6496    6.2675   16.1220 C.3   135  UNL135     -0.0517
   1076 H          16.7895    4.6626   15.2334 H     135  UNL135      0.0427
   1077 H          16.7895    4.6626   17.0105 H     135  UNL135      0.0427
   1078 H          14.7027    5.7182   16.1220 H     135  UNL135      0.0241
   1079 H          15.6669    6.9087   17.0094 H     135  UNL135      0.0241
   1080 H          15.6669    6.9087   15.2346 H     135  UNL135      0.0241
   1081 CL         18.7819    4.9899   19.6983 Cl    136  UNL136     -0.1257
   1082 C          17.2394    4.1082   19.6983 C.3   136  UNL136      0.0198
   1083 C          16.0749    5.0760   19.6983 C.3   136  UNL136     -0.0517
   1084 H          17.2148    3.4711   18.8097 H     136  UNL136      0.0427
   1085 H          17.2148    3.4711   20.5868 H     136  UNL136      0.0427
   1086 H          15.1280    4.5267   19.6983 H     136  UNL136      0.0241
   1087 H          16.0922    5.7172   20.5857 H     136  UNL136      0.0241
   1088 H          16.0922    5.7172   18.8109 H     136  UNL136      0.0241
   1089 CL         18.7307    4.3104   23.8839 Cl    137  UNL137     -0.1257
   1090 C          17.1882    3.4287   23.8839 C.3   137  UNL137      0.0198
   1091 C          16.0237    4.3965   23.8839 C.3   137  UNL137     -0.0517
   1092 H          17.1636    2.7916   22.9953 H     137  UNL137      0.0427
   1093 H          17.1636    2.7916   24.7724 H     137  UNL137      0.0427
   1094 H          15.0768    3.8472   23.8839 H     137  UNL137      0.0241
   1095 H          16.0410    5.0377   24.7713 H     137  UNL137      0.0241
   1096 H          16.0410    5.0377   22.9965 H     137  UNL137      0.0241
   1097 CL         18.7383    4.1984   27.8579 Cl    138  UNL138     -0.1257
   1098 C          17.1958    3.3167   27.8579 C.3   138  UNL138      0.0198
   1099 C          16.0313    4.2845   27.8579 C.3   138  UNL138     -0.0517
   1100 H          17.1712    2.6796   26.9693 H     138  UNL138      0.0427
   1101 H          17.1712    2.6796   28.7464 H     138  UNL138      0.0427
   1102 H          15.0844    3.7352   27.8579 H     138  UNL138      0.0241
   1103 H          16.0486    4.9257   28.7453 H     138  UNL138      0.0241
   1104 H          16.0486    4.9257   26.9705 H     138  UNL138      0.0241
   1105 CL         18.5226    6.0153   31.8418 Cl    139  UNL139     -0.1257
   1106 C          16.9801    5.1336   31.8418 C.3   139  UNL139      0.0198
   1107 C          15.8156    6.1014   31.8418 C.3   139  UNL139     -0.0517
   1108 H          16.9555    4.4965   30.9532 H     139  UNL139      0.0427
   1109 H          16.9555    4.4965   32.7303 H     139  UNL139      0.0427
   1110 H          14.8687    5.5521   31.8418 H     139  UNL139      0.0241
   1111 H          15.8329    6.7426   32.7292 H     139  UNL139      0.0241
   1112 H          15.8329    6.7426   30.9544 H     139  UNL139      0.0241
   1113 CL         18.4498    6.0218   35.8176 Cl    140  UNL140     -0.1257
   1114 C          16.9073    5.1401   35.8176 C.3   140  UNL140      0.0198
   1115 C          15.7428    6.1079   35.8176 C.3   140  UNL140     -0.0517
   1116 H          16.8827    4.5030   34.9290 H     140  UNL140      0.0427
   1117 H          16.8827    4.5030   36.7061 H     140  UNL140      0.0427
   1118 H          14.7959    5.5586   35.8176 H     140  UNL140      0.0241
   1119 H          15.7601    6.7491   36.7050 H     140  UNL140      0.0241
   1120 H          15.7601    6.7491   34.9302 H     140  UNL140      0.0241
   1121 CL         17.9647   10.3843    0.1072 Cl    141  UNL141     -0.1257
   1122 C          16.4222    9.5026    0.1072 C.3   141  UNL141      0.0198
   1123 C          15.2577   10.4704    0.1072 C.3   141  UNL141     -0.0517
   1124 H          16.3976    8.8655   -0.7814 H     141  UNL141      0.0427
   1125 H          16.3976    8.8655    0.9957 H     141  UNL141      0.0427
   1126 H          14.3108    9.9211    0.1072 H     141  UNL141      0.0241
   1127 H          15.2750   11.1116    0.9946 H     141  UNL141      0.0241
   1128 H          15.2750   11.1116   -0.7802 H     141  UNL141      0.0241
   1129 CL         18.5253   10.6534    3.9946 Cl    142  UNL142     -0.1257
   1130 C          16.9828    9.7717    3.9946 C.3   142  UNL142      0.0198
   1131 C          15.8183   10.7395    3.9946 C.3   142  UNL142     -0.0517
   1132 H          16.9582    9.1346    3.1060 H     142  UNL142      0.0427
   1133 H          16.9582    9.1346    4.8831 H     142  UNL142      0.0427
   1134 H          14.8714   10.1902    3.9946 H     142  UNL142      0.0241
   1135 H          15.8356   11.3807    4.8820 H     142  UNL142      0.0241
   1136 H          15.8356   11.3807    3.1072 H     142  UNL142      0.0241
   1137 CL         18.4977   10.6597    7.9715 Cl    143  UNL143     -0.1257
   1138 C          16.9552    9.7780    7.9715 C.3   143  UNL143      0.0198
   1139 C          15.7907   10.7458    7.9715 C.3   143  UNL143     -0.0517
   1140 H          16.9306    9.1409    7.0829 H     143  UNL143      0.0427
   1141 H          16.9306    9.1409    8.8600 H     143  UNL143      0.0427
   1142 H          14.8438   10.1965    7.9715 H     143  UNL143      0.0241
   1143 H          15.8080   11.3870    8.8589 H     143  UNL143      0.0241
   1144 H          15.8080   11.3870    7.0841 H     143  UNL143      0.0241
   1145 CL         18.6748   10.5635   11.9382 Cl    144  UNL144     -0.1257
   1146 C          17.1323    9.6818   11.9382 C.3   144  UNL144      0.0198
   1147 C          15.9678   10.6496   11.9382 C.3   144  UNL144     -0.0517
   1148 H          17.1077    9.0447   11.0496 H     144  UNL144      0.0427
   1149 H          17.1077    9.0447   12.8267 H     144  UNL144      0.0427
   1150 H          15.0209   10.1003   11.9382 H     144  UNL144      0.0241
   1151 H          15.9851   11.2908   12.8256 H     144  UNL144      0.0241
   1152 H          15.9851   11.2908   11.0508 H     144  UNL144      0.0241
   1153 CL         18.3830   10.2959   15.9546 Cl    145  UNL145     -0.1257
   1154 C          16.8405    9.4142   15.9546 C.3   145  UNL145      0.0198
   1155 C          15.6760   10.3820   15.9546 C.3   145  UNL145     -0.0517
   1156 H          16.8159    8.7771   15.0660 H     145  UNL145      0.0427
   1157 H          16.8159    8.7771   16.8431 H     145  UNL145      0.0427
   1158 H          14.7291    9.8327   15.9546 H     145  UNL145      0.0241
   1159 H          15.6933   11.0232   16.8420 H     145  UNL145      0.0241
   1160 H          15.6933   11.0232   15.0672 H     145  UNL145      0.0241
   1161 CL         18.5213   10.4821   19.9192 Cl    146  UNL146     -0.1257
   1162 C          16.9788    9.6004   19.9192 C.3   146  UNL146      0.0198
   1163 C          15.8143   10.5682   19.9192 C.3   146  UNL146     -0.0517
   1164 H          16.9542    8.9633   19.0306 H     146  UNL146      0.0427
   1165 H          16.9542    8.9633   20.8077 H     146  UNL146      0.0427
   1166 H          14.8674   10.0189   19.9192 H     146  UNL146      0.0241
   1167 H          15.8316   11.2094   20.8066 H     146  UNL146      0.0241
   1168 H          15.8316   11.2094   19.0318 H     146  UNL146      0.0241
   1169 CL         18.7569    9.3995   23.8465 Cl    147  UNL147     -0.1257
   1170 C          17.2144    8.5178   23.8465 C.3   147  UNL147      0.0198
   1171 C          16.0499    9.4856   23.8465 C.3   147  UNL147     -0.0517
   1172 H          17.1898    7.8807   22.9579 H     147  UNL147      0.0427
   1173 H          17.1898    7.8807   24.7350 H     147  UNL147      0.0427
   1174 H          15.1030    8.9363   23.8465 H     147  UNL147      0.0241
   1175 H          16.0672   10.1268   24.7339 H     147  UNL147      0.0241
   1176 H          16.0672   10.1268   22.9591 H     147  UNL147      0.0241
   1177 CL         19.1377    9.3968   27.7906 Cl    148  UNL148     -0.1257
   1178 C          17.5952    8.5151   27.7906 C.3   148  UNL148      0.0198
   1179 C          16.4307    9.4829   27.7906 C.3   148  UNL148     -0.0517
   1180 H          17.5706    7.8780   26.9020 H     148  UNL148      0.0427
   1181 H          17.5706    7.8780   28.6791 H     148  UNL148      0.0427
   1182 H          15.4838    8.9336   27.7906 H     148  UNL148      0.0241
   1183 H          16.4480   10.1241   28.6780 H     148  UNL148      0.0241
   1184 H          16.4480   10.1241   26.9032 H     148  UNL148      0.0241
   1185 CL         18.5279   11.2877   31.8562 Cl    149  UNL149     -0.1257
   1186 C          16.9854   10.4060   31.8562 C.3   149  UNL149      0.0198
   1187 C          15.8209   11.3738   31.8562 C.3   149  UNL149     -0.0517
   1188 H          16.9608    9.7689   30.9676 H     149  UNL149      0.0427
   1189 H          16.9608    9.7689   32.7447 H     149  UNL149      0.0427
   1190 H          14.8740   10.8245   31.8562 H     149  UNL149      0.0241
   1191 H          15.8382   12.0150   32.7436 H     149  UNL149      0.0241
   1192 H          15.8382   12.0150   30.9688 H     149  UNL149      0.0241
   1193 CL         18.7576   10.8358   35.7737 Cl    150  UNL150     -0.1257
   1194 C          17.2151    9.9541   35.7737 C.3   150  UNL150      0.0198
   1195 C          16.0506   10.9219   35.7737 C.3   150  UNL150     -0.0517
   1196 H          17.1905    9.3170   34.8851 H     150  UNL150      0.0427
   1197 H          17.1905    9.3170   36.6622 H     150  UNL150      0.0427
   1198 H          15.1037   10.3726   35.7737 H     150  UNL150      0.0241
   1199 H          16.0679   11.5631   36.6611 H     150  UNL150      0.0241
   1200 H          16.0679   11.5631   34.8863 H     150  UNL150      0.0241
   1201 CL         18.7576   14.7877    0.0344 Cl    151  UNL151     -0.1257
   1202 C          17.2151   13.9060    0.0344 C.3   151  UNL151      0.0198
   1203 C          16.0506   14.8738    0.0344 C.3   151  UNL151     -0.0517
   1204 H          17.1905   13.2689   -0.8542 H     151  UNL151      0.0427
   1205 H          17.1905   13.2689    0.9229 H     151  UNL151      0.0427
   1206 H          15.1037   14.3245    0.0344 H     151  UNL151      0.0241
   1207 H          16.0679   15.5150    0.9218 H     151  UNL151      0.0241
   1208 H          16.0679   15.5150   -0.8530 H     151  UNL151      0.0241
   1209 CL         18.4851   14.8148    3.9942 Cl    152  UNL152     -0.1257
   1210 C          16.9426   13.9331    3.9942 C.3   152  UNL152      0.0198
   1211 C          15.7781   14.9009    3.9942 C.3   152  UNL152     -0.0517
   1212 H          16.9180   13.2960    3.1056 H     152  UNL152      0.0427
   1213 H          16.9180   13.2960    4.8827 H     152  UNL152      0.0427
   1214 H          14.8312   14.3516    3.9942 H     152  UNL152      0.0241
   1215 H          15.7954   15.5421    4.8816 H     152  UNL152      0.0241
   1216 H          15.7954   15.5421    3.1068 H     152  UNL152      0.0241
   1217 CL         18.5153   14.7873    7.9709 Cl    153  UNL153     -0.1257
   1218 C          16.9728   13.9056    7.9709 C.3   153  UNL153      0.0198
   1219 C          15.8083   14.8734    7.9709 C.3   153  UNL153     -0.0517
   1220 H          16.9482   13.2685    7.0823 H     153  UNL153      0.0427
   1221 H          16.9482   13.2685    8.8594 H     153  UNL153      0.0427
   1222 H          14.8614   14.3241    7.9709 H     153  UNL153      0.0241
   1223 H          15.8256   15.5146    8.8583 H     153  UNL153      0.0241
   1224 H          15.8256   15.5146    7.0835 H     153  UNL153      0.0241
   1225 CL         18.4928   14.7871   11.9471 Cl    154  UNL154     -0.1257
   1226 C          16.9503   13.9054   11.9471 C.3   154  UNL154      0.0198
   1227 C          15.7858   14.8732   11.9471 C.3   154  UNL154     -0.0517
   1228 H          16.9257   13.2683   11.0585 H     154  UNL154      0.0427
   1229 H          16.9257   13.2683   12.8356 H     154  UNL154      0.0427
   1230 H          14.8389   14.3239   11.9471 H     154  UNL154      0.0241
   1231 H          15.8031   15.5144   12.8345 H     154  UNL154      0.0241
   1232 H          15.8031   15.5144   11.0597 H     154  UNL154      0.0241
   1233 CL         18.7068   15.1088   16.2424 Cl    155  UNL155     -0.1257
   1234 C          17.1643   14.2271   16.2424 C.3   155  UNL155      0.0198
   1235 C          15.9998   15.1949   16.2424 C.3   155  UNL155     -0.0517
   1236 H          17.1397   13.5900   15.3538 H     155  UNL155      0.0427
   1237 H          17.1397   13.5900   17.1309 H     155  UNL155      0.0427
   1238 H          15.0529   14.6456   16.2424 H     155  UNL155      0.0241
   1239 H          16.0171   15.8361   17.1298 H     155  UNL155      0.0241
   1240 H          16.0171   15.8361   15.3550 H     155  UNL155      0.0241
   1241 CL         16.5347   14.7359   19.6692 Cl    156  UNL156     -0.1257
   1242 C          14.9922   13.8542   19.6692 C.3   156  UNL156      0.0198
   1243 C          13.8277   14.8220   19.6692 C.3   156  UNL156     -0.0517
   1244 H          14.9676   13.2171   18.7806 H     156  UNL156      0.0427
   1245 H          14.9676   13.2171   20.5577 H     156  UNL156      0.0427
   1246 H          12.8808   14.2727   19.6692 H     156  UNL156      0.0241
   1247 H          13.8450   15.4632   20.5566 H     156  UNL156      0.0241
   1248 H          13.8450   15.4632   18.7818 H     156  UNL156      0.0241
   1249 CL         18.7421   14.6740   24.1447 Cl    157  UNL157     -0.1257
   1250 C          17.1996   13.7923   24.1447 C.3   157  UNL157      0.0198
   1251 C          16.0351   14.7601   24.1447 C.3   157  UNL157     -0.0517
   1252 H          17.1750   13.1552   23.2561 H     157  UNL157      0.0427
   1253 H          17.1750   13.1552   25.0332 H     157  UNL157      0.0427
   1254 H          15.0882   14.2108   24.1447 H     157  UNL157      0.0241
   1255 H          16.0524   15.4013   25.0321 H     157  UNL157      0.0241
   1256 H          16.0524   15.4013   23.2573 H     157  UNL157      0.0241
   1257 CL         16.4215   15.3146   27.8540 Cl    158  UNL158     -0.1257
   1258 C          14.8791   14.4329   27.8540 C.3   158  UNL158      0.0198
   1259 C          13.7146   15.4007   27.8540 C.3   158  UNL158     -0.0517
   1260 H          14.8545   13.7958   26.9654 H     158  UNL158      0.0427
   1261 H          14.8545   13.7958   28.7425 H     158  UNL158      0.0427
   1262 H          12.7677   14.8514   27.8540 H     158  UNL158      0.0241
   1263 H          13.7319   16.0419   28.7414 H     158  UNL158      0.0241
   1264 H          13.7319   16.0419   26.9666 H     158  UNL158      0.0241
   1265 CL         16.4989   15.4948   31.8259 Cl    159  UNL159     -0.1257
   1266 C          14.9564   14.6131   31.8259 C.3   159  UNL159      0.0198
   1267 C          13.7919   15.5809   31.8259 C.3   159  UNL159     -0.0517
   1268 H          14.9318   13.9760   30.9373 H     159  UNL159      0.0427
   1269 H          14.9318   13.9760   32.7144 H     159  UNL159      0.0427
   1270 H          12.8450   15.0316   31.8259 H     159  UNL159      0.0241
   1271 H          13.8092   16.2221   32.7133 H     159  UNL159      0.0241
   1272 H          13.8092   16.2221   30.9385 H     159  UNL159      0.0241
   1273 CL         16.5704   14.9776   36.1098 Cl    160  UNL160     -0.1257
   1274 C          15.0279   14.0959   36.1098 C.3   160  UNL160      0.0198
   1275 C          13.8634   15.0637   36.1098 C.3   160  UNL160     -0.0517
   1276 H          15.0033   13.4588   35.2212 H     160  UNL160      0.0427
   1277 H          15.0033   13.4588   36.9983 H     160  UNL160      0.0427
   1278 H          12.9165   14.5144   36.1098 H     160  UNL160      0.0241
   1279 H          13.8807   15.7049   36.9972 H     160  UNL160      0.0241
   1280 H          13.8807   15.7049   35.2224 H     160  UNL160      0.0241
   1281 CL         19.0183   19.9319    0.1154 Cl    161  UNL161     -0.1257
   1282 C          17.4758   19.0502    0.1154 C.3   161  UNL161      0.0198
   1283 C          16.3113   20.0180    0.1154 C.3   161  UNL161     -0.0517
   1284 H          17.4512   18.4131   -0.7732 H     161  UNL161      0.0427
   1285 H          17.4512   18.4131    1.0039 H     161  UNL161      0.0427
   1286 H          15.3644   19.4687    0.1154 H     161  UNL161      0.0241
   1287 H          16.3286   20.6592    1.0028 H     161  UNL161      0.0241
   1288 H          16.3286   20.6592   -0.7720 H     161  UNL161      0.0241
   1289 CL         15.2616   18.7804    3.1908 Cl    162  UNL162     -0.1257
   1290 C          13.7191   19.3081    2.4845 C.3   162  UNL162      0.0198
   1291 C          12.5546   18.7289    3.2598 C.3   162  UNL162     -0.0517
   1292 H          13.6945   20.4013    2.5058 H     162  UNL162      0.0427
   1293 H          13.6945   18.9775    1.4423 H     162  UNL162      0.0427
   1294 H          11.6077   19.0576    2.8197 H     162  UNL162      0.0241
   1295 H          12.5719   17.6342    3.2424 H     162  UNL162      0.0241
   1296 H          12.5719   19.0561    4.3046 H     162  UNL162      0.0241
   1297 CL         18.5227   18.9194    8.0476 Cl    163  UNL163     -0.1257
   1298 C          16.9802   18.0377    8.0476 C.3   163  UNL163      0.0198
   1299 C          15.8157   19.0055    8.0476 C.3   163  UNL163     -0.0517
   1300 H          16.9556   17.4006    7.1590 H     163  UNL163      0.0427
   1301 H          16.9556   17.4006    8.9361 H     163  UNL163      0.0427
   1302 H          14.8688   18.4562    8.0476 H     163  UNL163      0.0241
   1303 H          15.8330   19.6467    8.9350 H     163  UNL163      0.0241
   1304 H          15.8330   19.6467    7.1602 H     163  UNL163      0.0241
   1305 CL         18.6631   19.5244   11.9352 Cl    164  UNL164     -0.1257
   1306 C          17.1206   18.6427   11.9352 C.3   164  UNL164      0.0198
   1307 C          15.9561   19.6105   11.9352 C.3   164  UNL164     -0.0517
   1308 H          17.0960   18.0056   11.0466 H     164  UNL164      0.0427
   1309 H          17.0960   18.0056   12.8237 H     164  UNL164      0.0427
   1310 H          15.0092   19.0612   11.9352 H     164  UNL164      0.0241
   1311 H          15.9734   20.2517   12.8226 H     164  UNL164      0.0241
   1312 H          15.9734   20.2517   11.0478 H     164  UNL164      0.0241
   1313 CL         18.4297   19.3614   15.9312 Cl    165  UNL165     -0.1257
   1314 C          16.8872   18.4797   15.9312 C.3   165  UNL165      0.0198
   1315 C          15.7227   19.4475   15.9312 C.3   165  UNL165     -0.0517
   1316 H          16.8626   17.8426   15.0426 H     165  UNL165      0.0427
   1317 H          16.8626   17.8426   16.8196 H     165  UNL165      0.0427
   1318 H          14.7758   18.8982   15.9312 H     165  UNL165      0.0241
   1319 H          15.7400   20.0887   16.8186 H     165  UNL165      0.0241
   1320 H          15.7400   20.0887   15.0438 H     165  UNL165      0.0241
   1321 CL         18.5230   19.0277   19.8808 Cl    166  UNL166     -0.1257
   1322 C          16.9805   18.1460   19.8808 C.3   166  UNL166      0.0198
   1323 C          15.8160   19.1138   19.8808 C.3   166  UNL166     -0.0517
   1324 H          16.9559   17.5089   18.9922 H     166  UNL166      0.0427
   1325 H          16.9559   17.5089   20.7693 H     166  UNL166      0.0427
   1326 H          14.8691   18.5645   19.8808 H     166  UNL166      0.0241
   1327 H          15.8333   19.7550   20.7682 H     166  UNL166      0.0241
   1328 H          15.8333   19.7550   18.9934 H     166  UNL166      0.0241
   1329 CL         18.4772   18.9247   23.8530 Cl    167  UNL167     -0.1257
   1330 C          16.9347   18.0430   23.8530 C.3   167  UNL167      0.0198
   1331 C          15.7702   19.0108   23.8530 C.3   167  UNL167     -0.0517
   1332 H          16.9101   17.4059   22.9644 H     167  UNL167      0.0427
   1333 H          16.9101   17.4059   24.7415 H     167  UNL167      0.0427
   1334 H          14.8233   18.4615   23.8530 H     167  UNL167      0.0241
   1335 H          15.7875   19.6520   24.7404 H     167  UNL167      0.0241
   1336 H          15.7875   19.6520   22.9656 H     167  UNL167      0.0241
   1337 CL         18.6695   19.4856   27.9369 Cl    168  UNL168     -0.1257
   1338 C          17.1270   18.6039   27.9369 C.3   168  UNL168      0.0198
   1339 C          15.9625   19.5717   27.9369 C.3   168  UNL168     -0.0517
   1340 H          17.1024   17.9668   27.0483 H     168  UNL168      0.0427
   1341 H          17.1024   17.9668   28.8254 H     168  UNL168      0.0427
   1342 H          15.0156   19.0224   27.9369 H     168  UNL168      0.0241
   1343 H          15.9798   20.2129   28.8243 H     168  UNL168      0.0241
   1344 H          15.9798   20.2129   27.0495 H     168  UNL168      0.0241
   1345 CL         18.5597   19.7868   31.8887 Cl    169  UNL169     -0.1257
   1346 C          17.0172   18.9051   31.8887 C.3   169  UNL169      0.0198
   1347 C          15.8527   19.8729   31.8887 C.3   169  UNL169     -0.0517
   1348 H          16.9926   18.2680   31.0001 H     169  UNL169      0.0427
   1349 H          16.9926   18.2680   32.7772 H     169  UNL169      0.0427
   1350 H          14.9058   19.3236   31.8887 H     169  UNL169      0.0241
   1351 H          15.8700   20.5141   32.7761 H     169  UNL169      0.0241
   1352 H          15.8700   20.5141   31.0013 H     169  UNL169      0.0241
   1353 CL         18.8474   19.2002   35.7666 Cl    170  UNL170     -0.1257
   1354 C          17.3049   18.3185   35.7666 C.3   170  UNL170      0.0198
   1355 C          16.1404   19.2863   35.7666 C.3   170  UNL170     -0.0517
   1356 H          17.2803   17.6814   34.8780 H     170  UNL170      0.0427
   1357 H          17.2803   17.6814   36.6551 H     170  UNL170      0.0427
   1358 H          15.1935   18.7370   35.7666 H     170  UNL170      0.0241
   1359 H          16.1577   19.9275   36.6540 H     170  UNL170      0.0241
   1360 H          16.1577   19.9275   34.8792 H     170  UNL170      0.0241
   1361 CL         18.8143   24.1315   -0.3103 Cl    171  UNL171     -0.1257
   1362 C          17.2718   23.2498   -0.3103 C.3   171  UNL171      0.0198
   1363 C          16.1073   24.2176   -0.3103 C.3   171  UNL171     -0.0517
   1364 H          17.2472   22.6127   -1.1989 H     171  UNL171      0.0427
   1365 H          17.2472   22.6127    0.5782 H     171  UNL171      0.0427
   1366 H          15.1604   23.6683   -0.3103 H     171  UNL171      0.0241
   1367 H          16.1246   24.8588    0.5771 H     171  UNL171      0.0241
   1368 H          16.1246   24.8588   -1.1977 H     171  UNL171      0.0241
   1369 CL         18.5120   23.4212    4.1104 Cl    172  UNL172     -0.1257
   1370 C          16.9695   22.5395    4.1104 C.3   172  UNL172      0.0198
   1371 C          15.8050   23.5073    4.1104 C.3   172  UNL172     -0.0517
   1372 H          16.9449   21.9024    3.2218 H     172  UNL172      0.0427
   1373 H          16.9449   21.9024    4.9989 H     172  UNL172      0.0427
   1374 H          14.8581   22.9580    4.1104 H     172  UNL172      0.0241
   1375 H          15.8223   24.1485    4.9978 H     172  UNL172      0.0241
   1376 H          15.8223   24.1485    3.2230 H     172  UNL172      0.0241
   1377 CL         18.8218   23.9739    7.9926 Cl    173  UNL173     -0.1257
   1378 C          17.2793   23.0922    7.9926 C.3   173  UNL173      0.0198
   1379 C          16.1148   24.0600    7.9926 C.3   173  UNL173     -0.0517
   1380 H          17.2547   22.4551    7.1040 H     173  UNL173      0.0427
   1381 H          17.2547   22.4551    8.8811 H     173  UNL173      0.0427
   1382 H          15.1679   23.5107    7.9926 H     173  UNL173      0.0241
   1383 H          16.1321   24.7012    8.8800 H     173  UNL173      0.0241
   1384 H          16.1321   24.7012    7.1052 H     173  UNL173      0.0241
   1385 CL         18.3638   23.8105   11.9131 Cl    174  UNL174     -0.1257
   1386 C          16.8213   22.9288   11.9131 C.3   174  UNL174      0.0198
   1387 C          15.6568   23.8966   11.9131 C.3   174  UNL174     -0.0517
   1388 H          16.7967   22.2917   11.0245 H     174  UNL174      0.0427
   1389 H          16.7967   22.2917   12.8016 H     174  UNL174      0.0427
   1390 H          14.7099   23.3473   11.9131 H     174  UNL174      0.0241
   1391 H          15.6741   24.5378   12.8005 H     174  UNL174      0.0241
   1392 H          15.6741   24.5378   11.0257 H     174  UNL174      0.0241
   1393 CL         18.6337   24.2894   15.9554 Cl    175  UNL175     -0.1257
   1394 C          17.0912   23.4077   15.9554 C.3   175  UNL175      0.0198
   1395 C          15.9267   24.3755   15.9554 C.3   175  UNL175     -0.0517
   1396 H          17.0666   22.7706   15.0668 H     175  UNL175      0.0427
   1397 H          17.0666   22.7706   16.8439 H     175  UNL175      0.0427
   1398 H          14.9798   23.8262   15.9554 H     175  UNL175      0.0241
   1399 H          15.9440   25.0167   16.8428 H     175  UNL175      0.0241
   1400 H          15.9440   25.0167   15.0680 H     175  UNL175      0.0241
   1401 CL         18.5525   24.1333   19.9254 Cl    176  UNL176     -0.1257
   1402 C          17.0100   23.2516   19.9254 C.3   176  UNL176      0.0198
   1403 C          15.8455   24.2194   19.9254 C.3   176  UNL176     -0.0517
   1404 H          16.9854   22.6145   19.0368 H     176  UNL176      0.0427
   1405 H          16.9854   22.6145   20.8139 H     176  UNL176      0.0427
   1406 H          14.8986   23.6701   19.9254 H     176  UNL176      0.0241
   1407 H          15.8628   24.8606   20.8128 H     176  UNL176      0.0241
   1408 H          15.8628   24.8606   19.0380 H     176  UNL176      0.0241
   1409 CL         18.8654   23.9760   23.8744 Cl    177  UNL177     -0.1257
   1410 C          17.3229   23.0943   23.8744 C.3   177  UNL177      0.0198
   1411 C          16.1584   24.0621   23.8744 C.3   177  UNL177     -0.0517
   1412 H          17.2983   22.4572   22.9858 H     177  UNL177      0.0427
   1413 H          17.2983   22.4572   24.7629 H     177  UNL177      0.0427
   1414 H          15.2115   23.5128   23.8744 H     177  UNL177      0.0241
   1415 H          16.1757   24.7033   24.7618 H     177  UNL177      0.0241
   1416 H          16.1757   24.7033   22.9870 H     177  UNL177      0.0241
   1417 CL         18.3347   23.7847   27.8671 Cl    178  UNL178     -0.1257
   1418 C          16.7922   22.9030   27.8671 C.3   178  UNL178      0.0198
   1419 C          15.6277   23.8708   27.8671 C.3   178  UNL178     -0.0517
   1420 H          16.7676   22.2659   26.9785 H     178  UNL178      0.0427
   1421 H          16.7676   22.2659   28.7556 H     178  UNL178      0.0427
   1422 H          14.6808   23.3215   27.8671 H     178  UNL178      0.0241
   1423 H          15.6450   24.5120   28.7545 H     178  UNL178      0.0241
   1424 H          15.6450   24.5120   26.9797 H     178  UNL178      0.0241
   1425 CL         18.5353   23.9384   31.8298 Cl    179  UNL179     -0.1257
   1426 C          16.9928   23.0567   31.8298 C.3   179  UNL179      0.0198
   1427 C          15.8282   24.0245   31.8298 C.3   179  UNL179     -0.0517
   1428 H          16.9682   22.4196   30.9412 H     179  UNL179      0.0427
   1429 H          16.9682   22.4196   32.7183 H     179  UNL179      0.0427
   1430 H          14.8813   23.4752   31.8298 H     179  UNL179      0.0241
   1431 H          15.8455   24.6657   32.7172 H     179  UNL179      0.0241
   1432 H          15.8455   24.6657   30.9424 H     179  UNL179      0.0241
   1433 CL         18.5496   23.9605   35.8068 Cl    180  UNL180     -0.1257
   1434 C          17.0071   23.0788   35.8068 C.3   180  UNL180      0.0198
   1435 C          15.8426   24.0466   35.8068 C.3   180  UNL180     -0.0517
   1436 H          16.9825   22.4417   34.9182 H     180  UNL180      0.0427
   1437 H          16.9825   22.4417   36.6953 H     180  UNL180      0.0427
   1438 H          14.8957   23.4973   35.8068 H     180  UNL180      0.0241
   1439 H          15.8599   24.6878   36.6942 H     180  UNL180      0.0241
   1440 H          15.8599   24.6878   34.9194 H     180  UNL180      0.0241
   1441 CL         18.5409   28.0742   31.8303 Cl    181  UNL181     -0.1257
   1442 C          16.9984   27.1925   31.8303 C.3   181  UNL181      0.0198
   1443 C          15.8339   28.1603   31.8303 C.3   181  UNL181     -0.0517
   1444 H          16.9738   26.5554   30.9417 H     181  UNL181      0.0427
   1445 H          16.9738   26.5554   32.7188 H     181  UNL181      0.0427
   1446 H          14.8870   27.6110   31.8303 H     181  UNL181      0.0241
   1447 H          15.8512   28.8015   32.7177 H     181  UNL181      0.0241
   1448 H          15.8512   28.8015   30.9429 H     181  UNL181      0.0241
   1449 CL         18.5302   28.1101   35.8072 Cl    182  UNL182     -0.1257
   1450 C          16.9877   27.2283   35.8072 C.3   182  UNL182      0.0198
   1451 C          15.8232   28.1962   35.8072 C.3   182  UNL182     -0.0517
   1452 H          16.9631   26.5912   34.9186 H     182  UNL182      0.0427
   1453 H          16.9631   26.5912   36.6957 H     182  UNL182      0.0427
   1454 H          14.8763   27.6469   35.8072 H     182  UNL182      0.0241
   1455 H          15.8405   28.8373   36.6946 H     182  UNL182      0.0241
   1456 H          15.8405   28.8373   34.9198 H     182  UNL182      0.0241
@<TRIPOS>BOND
     1     1     2    1
     2     2     3    1
     3     2     4    1
     4     2     5    1
     5     3     6    1
     6     3     7    1
     7     3     8    1
     8     9    10    1
     9    10    11    1
    10    10    12    1
    11    10    13    1
    12    11    14    1
    13    11    15    1
    14    11    16    1
    15    17    18    1
    16    18    19    1
    17    18    20    1
    18    18    21    1
    19    19    22    1
    20    19    23    1
    21    19    24    1
    22    25    26    1
    23    26    27    1
    24    26    28    1
    25    26    29    1
    26    27    30    1
    27    27    31    1
    28    27    32    1
    29    33    34    1
    30    34    35    1
    31    34    36    1
    32    34    37    1
    33    35    38    1
    34    35    39    1
    35    35    40    1
    36    41    42    1
    37    42    43    1
    38    42    44    1
    39    42    45    1
    40    43    46    1
    41    43    47    1
    42    43    48    1
    43    49    50    1
    44    50    51    1
    45    50    52    1
    46    50    53    1
    47    51    54    1
    48    51    55    1
    49    51    56    1
    50    57    58    1
    51    58    59    1
    52    58    60    1
    53    58    61    1
    54    59    62    1
    55    59    63    1
    56    59    64    1
    57    65    66    1
    58    66    67    1
    59    66    68    1
    60    66    69    1
    61    67    70    1
    62    67    71    1
    63    67    72    1
    64    73    74    1
    65    74    75    1
    66    74    76    1
    67    74    77    1
    68    75    78    1
    69    75    79    1
    70    75    80    1
    71    81    82    1
    72    82    83    1
    73    82    84    1
    74    82    85    1
    75    83    86    1
    76    83    87    1
    77    83    88    1
    78    89    90    1
    79    90    91    1
    80    90    92    1
    81    90    93    1
    82    91    94    1
    83    91    95    1
    84    91    96    1
    85    97    98    1
    86    98    99    1
    87    98   100    1
    88    98   101    1
    89    99   102    1
    90    99   103    1
    91    99   104    1
    92   105   106    1
    93   106   107    1
    94   106   108    1
    95   106   109    1
    96   107   110    1
    97   107   111    1
    98   107   112    1
    99   113   114    1
   100   114   115    1
   101   114   116    1
   102   114   117    1
   103   115   118    1
   104   115   119    1
   105   115   120    1
   106   121   122    1
   107   122   123    1
   108   122   124    1
   109   122   125    1
   110   123   126    1
   111   123   127    1
   112   123   128    1
   113   129   130    1
   114   130   131    1
   115   130   132    1
   116   130   133    1
   117   131   134    1
   118   131   135    1
   119   131   136    1
   120   137   138    1
   121   138   139    1
   122   138   140    1
   123   138   141    1
   124   139   142    1
   125   139   143    1
   126   139   144    1
   127   145   146    1
   128   146   147    1
   129   146   148    1
   130   146   149    1
   131   147   150    1
   132   147   151    1
   133   147   152    1
   134   153   154    1
   135   154   155    1
   136   154   156    1
   137   154   157    1
   138   155   158    1
   139   155   159    1
   140   155   160    1
   141   161   162    1
   142   162   163    1
   143   162   164    1
   144   162   165    1
   145   163   166    1
   146   163   167    1
   147   163   168    1
   148   169   170    1
   149   170   171    1
   150   170   172    1
   151   170   173    1
   152   171   174    1
   153   171   175    1
   154   171   176    1
   155   177   178    1
   156   178   179    1
   157   178   180    1
   158   178   181    1
   159   179   182    1
   160   179   183    1
   161   179   184    1
   162   185   186    1
   163   186   187    1
   164   186   188    1
   165   186   189    1
   166   187   190    1
   167   187   191    1
   168   187   192    1
   169   193   194    1
   170   194   195    1
   171   194   196    1
   172   194   197    1
   173   195   198    1
   174   195   199    1
   175   195   200    1
   176   201   202    1
   177   202   203    1
   178   202   204    1
   179   202   205    1
   180   203   206    1
   181   203   207    1
   182   203   208    1
   183   209   210    1
   184   210   211    1
   185   210   212    1
   186   210   213    1
   187   211   214    1
   188   211   215    1
   189   211   216    1
   190   217   218    1
   191   218   219    1
   192   218   220    1
   193   218   221    1
   194   219   222    1
   195   219   223    1
   196   219   224    1
   197   225   226    1
   198   226   227    1
   199   226   228    1
   200   226   229    1
   201   227   230    1
   202   227   231    1
   203   227   232    1
   204   233   234    1
   205   234   235    1
   206   234   236    1
   207   234   237    1
   208   235   238    1
   209   235   239    1
   210   235   240    1
   211   241   242    1
   212   242   243    1
   213   242   244    1
   214   242   245    1
   215   243   246    1
   216   243   247    1
   217   243   248    1
   218   249   250    1
   219   250   251    1
   220   250   252    1
   221   250   253    1
   222   251   254    1
   223   251   255    1
   224   251   256    1
   225   257   258    1
   226   258   259    1
   227   258   260    1
   228   258   261    1
   229   259   262    1
   230   259   263    1
   231   259   264    1
   232   265   266    1
   233   266   267    1
   234   266   268    1
   235   266   269    1
   236   267   270    1
   237   267   271    1
   238   267   272    1
   239   273   274    1
   240   274   275    1
   241   274   276    1
   242   274   277    1
   243   275   278    1
   244   275   279    1
   245   275   280    1
   246   281   282    1
   247   282   283    1
   248   282   284    1
   249   282   285    1
   250   283   286    1
   251   283   287    1
   252   283   288    1
   253   289   290    1
   254   290   291    1
   255   290   292    1
   256   290   293    1
   257   291   294    1
   258   291   295    1
   259   291   296    1
   260   297   298    1
   261   298   299    1
   262   298   300    1
   263   298   301    1
   264   299   302    1
   265   299   303    1
   266   299   304    1
   267   305   306    1
   268   306   307    1
   269   306   308    1
   270   306   309    1
   271   307   310    1
   272   307   311    1
   273   307   312    1
   274   313   314    1
   275   314   315    1
   276   314   316    1
   277   314   317    1
   278   315   318    1
   279   315   319    1
   280   315   320    1
   281   321   322    1
   282   322   323    1
   283   322   324    1
   284   322   325    1
   285   323   326    1
   286   323   327    1
   287   323   328    1
   288   329   330    1
   289   330   331    1
   290   330   332    1
   291   330   333    1
   292   331   334    1
   293   331   335    1
   294   331   336    1
   295   337   338    1
   296   338   339    1
   297   338   340    1
   298   338   341    1
   299   339   342    1
   300   339   343    1
   301   339   344    1
   302   345   346    1
   303   346   347    1
   304   346   348    1
   305   346   349    1
   306   347   350    1
   307   347   351    1
   308   347   352    1
   309   353   354    1
   310   354   355    1
   311   354   356    1
   312   354   357    1
   313   355   358    1
   314   355   359    1
   315   355   360    1
   316   361   362    1
   317   362   363    1
   318   362   364    1
   319   362   365    1
   320   363   366    1
   321   363   367    1
   322   363   368    1
   323   369   370    1
   324   370   371    1
   325   370   372    1
   326   370   373    1
   327   371   374    1
   328   371   375    1
   329   371   376    1
   330   377   378    1
   331   378   379    1
   332   378   380    1
   333   378   381    1
   334   379   382    1
   335   379   383    1
   336   379   384    1
   337   385   386    1
   338   386   387    1
   339   386   388    1
   340   386   389    1
   341   387   390    1
   342   387   391    1
   343   387   392    1
   344   393   394    1
   345   394   395    1
   346   394   396    1
   347   394   397    1
   348   395   398    1
   349   395   399    1
   350   395   400    1
   351   401   402    1
   352   402   403    1
   353   402   404    1
   354   402   405    1
   355   403   406    1
   356   403   407    1
   357   403   408    1
   358   409   410    1
   359   410   411    1
   360   410   412    1
   361   410   413    1
   362   411   414    1
   363   411   415    1
   364   411   416    1
   365   417   418    1
   366   418   419    1
   367   418   420    1
   368   418   421    1
   369   419   422    1
   370   419   423    1
   371   419   424    1
   372   425   426    1
   373   426   427    1
   374   426   428    1
   375   426   429    1
   376   427   430    1
   377   427   431    1
   378   427   432    1
   379   433   434    1
   380   434   435    1
   381   434   436    1
   382   434   437    1
   383   435   438    1
   384   435   439    1
   385   435   440    1
   386   441   442    1
   387   442   443    1
   388   442   444    1
   389   442   445    1
   390   443   446    1
   391   443   447    1
   392   443   448    1
   393   449   450    1
   394   450   451    1
   395   450   452    1
   396   450   453    1
   397   451   454    1
   398   451   455    1
   399   451   456    1
   400   457   458    1
   401   458   459    1
   402   458   460    1
   403   458   461    1
   404   459   462    1
   405   459   463    1
   406   459   464    1
   407   465   466    1
   408   466   467    1
   409   466   468    1
   410   466   469    1
   411   467   470    1
   412   467   471    1
   413   467   472    1
   414   473   474    1
   415   474   475    1
   416   474   476    1
   417   474   477    1
   418   475   478    1
   419   475   479    1
   420   475   480    1
   421   481   482    1
   422   482   483    1
   423   482   484    1
   424   482   485    1
   425   483   486    1
   426   483   487    1
   427   483   488    1
   428   489   490    1
   429   490   491    1
   430   490   492    1
   431   490   493    1
   432   491   494    1
   433   491   495    1
   434   491   496    1
   435   497   498    1
   436   498   499    1
   437   498   500    1
   438   498   501    1
   439   499   502    1
   440   499   503    1
   441   499   504    1
   442   505   506    1
   443   506   507    1
   444   506   508    1
   445   506   509    1
   446   507   510    1
   447   507   511    1
   448   507   512    1
   449   513   514    1
   450   514   515    1
   451   514   516    1
   452   514   517    1
   453   515   518    1
   454   515   519    1
   455   515   520    1
   456   521   522    1
   457   522   523    1
   458   522   524    1
   459   522   525    1
   460   523   526    1
   461   523   527    1
   462   523   528    1
   463   529   530    1
   464   530   531    1
   465   530   532    1
   466   530   533    1
   467   531   534    1
   468   531   535    1
   469   531   536    1
   470   537   538    1
   471   538   539    1
   472   538   540    1
   473   538   541    1
   474   539   542    1
   475   539   543    1
   476   539   544    1
   477   545   546    1
   478   546   547    1
   479   546   548    1
   480   546   549    1
   481   547   550    1
   482   547   551    1
   483   547   552    1
   484   553   554    1
   485   554   555    1
   486   554   556    1
   487   554   557    1
   488   555   558    1
   489   555   559    1
   490   555   560    1
   491   561   562    1
   492   562   563    1
   493   562   564    1
   494   562   565    1
   495   563   566    1
   496   563   567    1
   497   563   568    1
   498   569   570    1
   499   570   571    1
   500   570   572    1
   501   570   573    1
   502   571   574    1
   503   571   575    1
   504   571   576    1
   505   577   578    1
   506   578   579    1
   507   578   580    1
   508   578   581    1
   509   579   582    1
   510   579   583    1
   511   579   584    1
   512   585   586    1
   513   586   587    1
   514   586   588    1
   515   586   589    1
   516   587   590    1
   517   587   591    1
   518   587   592    1
   519   593   594    1
   520   594   595    1
   521   594   596    1
   522   594   597    1
   523   595   598    1
   524   595   599    1
   525   595   600    1
   526   601   602    1
   527   602   603    1
   528   602   604    1
   529   602   605    1
   530   603   606    1
   531   603   607    1
   532   603   608    1
   533   609   610    1
   534   610   611    1
   535   610   612    1
   536   610   613    1
   537   611   614    1
   538   611   615    1
   539   611   616    1
   540   617   618    1
   541   618   619    1
   542   618   620    1
   543   618   621    1
   544   619   622    1
   545   619   623    1
   546   619   624    1
   547   625   626    1
   548   626   627    1
   549   626   628    1
   550   626   629    1
   551   627   630    1
   552   627   631    1
   553   627   632    1
   554   633   634    1
   555   634   635    1
   556   634   636    1
   557   634   637    1
   558   635   638    1
   559   635   639    1
   560   635   640    1
   561   641   642    1
   562   642   643    1
   563   642   644    1
   564   642   645    1
   565   643   646    1
   566   643   647    1
   567   643   648    1
   568   649   650    1
   569   650   651    1
   570   650   652    1
   571   650   653    1
   572   651   654    1
   573   651   655    1
   574   651   656    1
   575   657   658    1
   576   658   659    1
   577   658   660    1
   578   658   661    1
   579   659   662    1
   580   659   663    1
   581   659   664    1
   582   665   666    1
   583   666   667    1
   584   666   668    1
   585   666   669    1
   586   667   670    1
   587   667   671    1
   588   667   672    1
   589   673   674    1
   590   674   675    1
   591   674   676    1
   592   674   677    1
   593   675   678    1
   594   675   679    1
   595   675   680    1
   596   681   682    1
   597   682   683    1
   598   682   684    1
   599   682   685    1
   600   683   686    1
   601   683   687    1
   602   683   688    1
   603   689   690    1
   604   690   691    1
   605   690   692    1
   606   690   693    1
   607   691   694    1
   608   691   695    1
   609   691   696    1
   610   697   698    1
   611   698   699    1
   612   698   700    1
   613   698   701    1
   614   699   702    1
   615   699   703    1
   616   699   704    1
   617   705   706    1
   618   706   707    1
   619   706   708    1
   620   706   709    1
   621   707   710    1
   622   707   711    1
   623   707   712    1
   624   713   714    1
   625   714   715    1
   626   714   716    1
   627   714   717    1
   628   715   718    1
   629   715   719    1
   630   715   720    1
   631   721   722    1
   632   722   723    1
   633   722   724    1
   634   722   725    1
   635   723   726    1
   636   723   727    1
   637   723   728    1
   638   729   730    1
   639   730   731    1
   640   730   732    1
   641   730   733    1
   642   731   734    1
   643   731   735    1
   644   731   736    1
   645   737   738    1
   646   738   739    1
   647   738   740    1
   648   738   741    1
   649   739   742    1
   650   739   743    1
   651   739   744    1
   652   745   746    1
   653   746   747    1
   654   746   748    1
   655   746   749    1
   656   747   750    1
   657   747   751    1
   658   747   752    1
   659   753   754    1
   660   754   755    1
   661   754   756    1
   662   754   757    1
   663   755   758    1
   664   755   759    1
   665   755   760    1
   666   761   762    1
   667   762   763    1
   668   762   764    1
   669   762   765    1
   670   763   766    1
   671   763   767    1
   672   763   768    1
   673   769   770    1
   674   770   771    1
   675   770   772    1
   676   770   773    1
   677   771   774    1
   678   771   775    1
   679   771   776    1
   680   777   778    1
   681   778   779    1
   682   778   780    1
   683   778   781    1
   684   779   782    1
   685   779   783    1
   686   779   784    1
   687   785   786    1
   688   786   787    1
   689   786   788    1
   690   786   789    1
   691   787   790    1
   692   787   791    1
   693   787   792    1
   694   793   794    1
   695   794   795    1
   696   794   796    1
   697   794   797    1
   698   795   798    1
   699   795   799    1
   700   795   800    1
   701   801   802    1
   702   802   803    1
   703   802   804    1
   704   802   805    1
   705   803   806    1
   706   803   807    1
   707   803   808    1
   708   809   810    1
   709   810   811    1
   710   810   812    1
   711   810   813    1
   712   811   814    1
   713   811   815    1
   714   811   816    1
   715   817   818    1
   716   818   819    1
   717   818   820    1
   718   818   821    1
   719   819   822    1
   720   819   823    1
   721   819   824    1
   722   825   826    1
   723   826   827    1
   724   826   828    1
   725   826   829    1
   726   827   830    1
   727   827   831    1
   728   827   832    1
   729   833   834    1
   730   834   835    1
   731   834   836    1
   732   834   837    1
   733   835   838    1
   734   835   839    1
   735   835   840    1
   736   841   842    1
   737   842   843    1
   738   842   844    1
   739   842   845    1
   740   843   846    1
   741   843   847    1
   742   843   848    1
   743   849   850    1
   744   850   851    1
   745   850   852    1
   746   850   853    1
   747   851   854    1
   748   851   855    1
   749   851   856    1
   750   857   858    1
   751   858   859    1
   752   858   860    1
   753   858   861    1
   754   859   862    1
   755   859   863    1
   756   859   864    1
   757   865   866    1
   758   866   867    1
   759   866   868    1
   760   866   869    1
   761   867   870    1
   762   867   871    1
   763   867   872    1
   764   873   874    1
   765   874   875    1
   766   874   876    1
   767   874   877    1
   768   875   878    1
   769   875   879    1
   770   875   880    1
   771   881   882    1
   772   882   883    1
   773   882   884    1
   774   882   885    1
   775   883   886    1
   776   883   887    1
   777   883   888    1
   778   889   890    1
   779   890   891    1
   780   890   892    1
   781   890   893    1
   782   891   894    1
   783   891   895    1
   784   891   896    1
   785   897   898    1
   786   898   899    1
   787   898   900    1
   788   898   901    1
   789   899   902    1
   790   899   903    1
   791   899   904    1
   792   905   906    1
   793   906   907    1
   794   906   908    1
   795   906   909    1
   796   907   910    1
   797   907   911    1
   798   907   912    1
   799   913   914    1
   800   914   915    1
   801   914   916    1
   802   914   917    1
   803   915   918    1
   804   915   919    1
   805   915   920    1
   806   921   922    1
   807   922   923    1
   808   922   924    1
   809   922   925    1
   810   923   926    1
   811   923   927    1
   812   923   928    1
   813   929   930    1
   814   930   931    1
   815   930   932    1
   816   930   933    1
   817   931   934    1
   818   931   935    1
   819   931   936    1
   820   937   938    1
   821   938   939    1
   822   938   940    1
   823   938   941    1
   824   939   942    1
   825   939   943    1
   826   939   944    1
   827   945   946    1
   828   946   947    1
   829   946   948    1
   830   946   949    1
   831   947   950    1
   832   947   951    1
   833   947   952    1
   834   953   954    1
   835   954   955    1
   836   954   956    1
   837   954   957    1
   838   955   958    1
   839   955   959    1
   840   955   960    1
   841   961   962    1
   842   962   963    1
   843   962   964    1
   844   962   965    1
   845   963   966    1
   846   963   967    1
   847   963   968    1
   848   969   970    1
   849   970   971    1
   850   970   972    1
   851   970   973    1
   852   971   974    1
   853   971   975    1
   854   971   976    1
   855   977   978    1
   856   978   979    1
   857   978   980    1
   858   978   981    1
   859   979   982    1
   860   979   983    1
   861   979   984    1
   862   985   986    1
   863   986   987    1
   864   986   988    1
   865   986   989    1
   866   987   990    1
   867   987   991    1
   868   987   992    1
   869   993   994    1
   870   994   995    1
   871   994   996    1
   872   994   997    1
   873   995   998    1
   874   995   999    1
   875   995  1000    1
   876  1001  1002    1
   877  1002  1003    1
   878  1002  1004    1
   879  1002  1005    1
   880  1003  1006    1
   881  1003  1007    1
   882  1003  1008    1
   883  1009  1010    1
   884  1010  1011    1
   885  1010  1012    1
   886  1010  1013    1
   887  1011  1014    1
   888  1011  1015    1
   889  1011  1016    1
   890  1017  1018    1
   891  1018  1019    1
   892  1018  1020    1
   893  1018  1021    1
   894  1019  1022    1
   895  1019  1023    1
   896  1019  1024    1
   897  1025  1026    1
   898  1026  1027    1
   899  1026  1028    1
   900  1026  1029    1
   901  1027  1030    1
   902  1027  1031    1
   903  1027  1032    1
   904  1033  1034    1
   905  1034  1035    1
   906  1034  1036    1
   907  1034  1037    1
   908  1035  1038    1
   909  1035  1039    1
   910  1035  1040    1
   911  1041  1042    1
   912  1042  1043    1
   913  1042  1044    1
   914  1042  1045    1
   915  1043  1046    1
   916  1043  1047    1
   917  1043  1048    1
   918  1049  1050    1
   919  1050  1051    1
   920  1050  1052    1
   921  1050  1053    1
   922  1051  1054    1
   923  1051  1055    1
   924  1051  1056    1
   925  1057  1058    1
   926  1058  1059    1
   927  1058  1060    1
   928  1058  1061    1
   929  1059  1062    1
   930  1059  1063    1
   931  1059  1064    1
   932  1065  1066    1
   933  1066  1067    1
   934  1066  1068    1
   935  1066  1069    1
   936  1067  1070    1
   937  1067  1071    1
   938  1067  1072    1
   939  1073  1074    1
   940  1074  1075    1
   941  1074  1076    1
   942  1074  1077    1
   943  1075  1078    1
   944  1075  1079    1
   945  1075  1080    1
   946  1081  1082    1
   947  1082  1083    1
   948  1082  1084    1
   949  1082  1085    1
   950  1083  1086    1
   951  1083  1087    1
   952  1083  1088    1
   953  1089  1090    1
   954  1090  1091    1
   955  1090  1092    1
   956  1090  1093    1
   957  1091  1094    1
   958  1091  1095    1
   959  1091  1096    1
   960  1097  1098    1
   961  1098  1099    1
   962  1098  1100    1
   963  1098  1101    1
   964  1099  1102    1
   965  1099  1103    1
   966  1099  1104    1
   967  1105  1106    1
   968  1106  1107    1
   969  1106  1108    1
   970  1106  1109    1
   971  1107  1110    1
   972  1107  1111    1
   973  1107  1112    1
   974  1113  1114    1
   975  1114  1115    1
   976  1114  1116    1
   977  1114  1117    1
   978  1115  1118    1
   979  1115  1119    1
   980  1115  1120    1
   981  1121  1122    1
   982  1122  1123    1
   983  1122  1124    1
   984  1122  1125    1
   985  1123  1126    1
   986  1123  1127    1
   987  1123  1128    1
   988  1129  1130    1
   989  1130  1131    1
   990  1130  1132    1
   991  1130  1133    1
   992  1131  1134    1
   993  1131  1135    1
   994  1131  1136    1
   995  1137  1138    1
   996  1138  1139    1
   997  1138  1140    1
   998  1138  1141    1
   999  1139  1142    1
  1000  1139  1143    1
  1001  1139  1144    1
  1002  1145  1146    1
  1003  1146  1147    1
  1004  1146  1148    1
  1005  1146  1149    1
  1006  1147  1150    1
  1007  1147  1151    1
  1008  1147  1152    1
  1009  1153  1154    1
  1010  1154  1155    1
  1011  1154  1156    1
  1012  1154  1157    1
  1013  1155  1158    1
  1014  1155  1159    1
  1015  1155  1160    1
  1016  1161  1162    1
  1017  1162  1163    1
  1018  1162  1164    1
  1019  1162  1165    1
  1020  1163  1166    1
  1021  1163  1167    1
  1022  1163  1168    1
  1023  1169  1170    1
  1024  1170  1171    1
  1025  1170  1172    1
  1026  1170  1173    1
  1027  1171  1174    1
  1028  1171  1175    1
  1029  1171  1176    1
  1030  1177  1178    1
  1031  1178  1179    1
  1032  1178  1180    1
  1033  1178  1181    1
  1034  1179  1182    1
  1035  1179  1183    1
  1036  1179  1184    1
  1037  1185  1186    1
  1038  1186  1187    1
  1039  1186  1188    1
  1040  1186  1189    1
  1041  1187  1190    1
  1042  1187  1191    1
  1043  1187  1192    1
  1044  1193  1194    1
  1045  1194  1195    1
  1046  1194  1196    1
  1047  1194  1197    1
  1048  1195  1198    1
  1049  1195  1199    1
  1050  1195  1200    1
  1051  1201  1202    1
  1052  1202  1203    1
  1053  1202  1204    1
  1054  1202  1205    1
  1055  1203  1206    1
  1056  1203  1207    1
  1057  1203  1208    1
  1058  1209  1210    1
  1059  1210  1211    1
  1060  1210  1212    1
  1061  1210  1213    1
  1062  1211  1214    1
  1063  1211  1215    1
  1064  1211  1216    1
  1065  1217  1218    1
  1066  1218  1219    1
  1067  1218  1220    1
  1068  1218  1221    1
  1069  1219  1222    1
  1070  1219  1223    1
  1071  1219  1224    1
  1072  1225  1226    1
  1073  1226  1227    1
  1074  1226  1228    1
  1075  1226  1229    1
  1076  1227  1230    1
  1077  1227  1231    1
  1078  1227  1232    1
  1079  1233  1234    1
  1080  1234  1235    1
  1081  1234  1236    1
  1082  1234  1237    1
  1083  1235  1238    1
  1084  1235  1239    1
  1085  1235  1240    1
  1086  1241  1242    1
  1087  1242  1243    1
  1088  1242  1244    1
  1089  1242  1245    1
  1090  1243  1246    1
  1091  1243  1247    1
  1092  1243  1248    1
  1093  1249  1250    1
  1094  1250  1251    1
  1095  1250  1252    1
  1096  1250  1253    1
  1097  1251  1254    1
  1098  1251  1255    1
  1099  1251  1256    1
  1100  1257  1258    1
  1101  1258  1259    1
  1102  1258  1260    1
  1103  1258  1261    1
  1104  1259  1262    1
  1105  1259  1263    1
  1106  1259  1264    1
  1107  1265  1266    1
  1108  1266  1267    1
  1109  1266  1268    1
  1110  1266  1269    1
  1111  1267  1270    1
  1112  1267  1271    1
  1113  1267  1272    1
  1114  1273  1274    1
  1115  1274  1275    1
  1116  1274  1276    1
  1117  1274  1277    1
  1118  1275  1278    1
  1119  1275  1279    1
  1120  1275  1280    1
  1121  1281  1282    1
  1122  1282  1283    1
  1123  1282  1284    1
  1124  1282  1285    1
  1125  1283  1286    1
  1126  1283  1287    1
  1127  1283  1288    1
  1128  1289  1290    1
  1129  1290  1291    1
  1130  1290  1292    1
  1131  1290  1293    1
  1132  1291  1294    1
  1133  1291  1295    1
  1134  1291  1296    1
  1135  1297  1298    1
  1136  1298  1299    1
  1137  1298  1300    1
  1138  1298  1301    1
  1139  1299  1302    1
  1140  1299  1303    1
  1141  1299  1304    1
  1142  1305  1306    1
  1143  1306  1307    1
  1144  1306  1308    1
  1145  1306  1309    1
  1146  1307  1310    1
  1147  1307  1311    1
  1148  1307  1312    1
  1149  1313  1314    1
  1150  1314  1315    1
  1151  1314  1316    1
  1152  1314  1317    1
  1153  1315  1318    1
  1154  1315  1319    1
  1155  1315  1320    1
  1156  1321  1322    1
  1157  1322  1323    1
  1158  1322  1324    1
  1159  1322  1325    1
  1160  1323  1326    1
  1161  1323  1327    1
  1162  1323  1328    1
  1163  1329  1330    1
  1164  1330  1331    1
  1165  1330  1332    1
  1166  1330  1333    1
  1167  1331  1334    1
  1168  1331  1335    1
  1169  1331  1336    1
  1170  1337  1338    1
  1171  1338  1339    1
  1172  1338  1340    1
  1173  1338  1341    1
  1174  1339  1342    1
  1175  1339  1343    1
  1176  1339  1344    1
  1177  1345  1346    1
  1178  1346  1347    1
  1179  1346  1348    1
  1180  1346  1349    1
  1181  1347  1350    1
  1182  1347  1351    1
  1183  1347  1352    1
  1184  1353  1354    1
  1185  1354  1355    1
  1186  1354  1356    1
  1187  1354  1357    1
  1188  1355  1358    1
  1189  1355  1359    1
  1190  1355  1360    1
  1191  1361  1362    1
  1192  1362  1363    1
  1193  1362  1364    1
  1194  1362  1365    1
  1195  1363  1366    1
  1196  1363  1367    1
  1197  1363  1368    1
  1198  1369  1370    1
  1199  1370  1371    1
  1200  1370  1372    1
  1201  1370  1373    1
  1202  1371  1374    1
  1203  1371  1375    1
  1204  1371  1376    1
  1205  1377  1378    1
  1206  1378  1379    1
  1207  1378  1380    1
  1208  1378  1381    1
  1209  1379  1382    1
  1210  1379  1383    1
  1211  1379  1384    1
  1212  1385  1386    1
  1213  1386  1387    1
  1214  1386  1388    1
  1215  1386  1389    1
  1216  1387  1390    1
  1217  1387  1391    1
  1218  1387  1392    1
  1219  1393  1394    1
  1220  1394  1395    1
  1221  1394  1396    1
  1222  1394  1397    1
  1223  1395  1398    1
  1224  1395  1399    1
  1225  1395  1400    1
  1226  1401  1402    1
  1227  1402  1403    1
  1228  1402  1404    1
  1229  1402  1405    1
  1230  1403  1406    1
  1231  1403  1407    1
  1232  1403  1408    1
  1233  1409  1410    1
  1234  1410  1411    1
  1235  1410  1412    1
  1236  1410  1413    1
  1237  1411  1414    1
  1238  1411  1415    1
  1239  1411  1416    1
  1240  1417  1418    1
  1241  1418  1419    1
  1242  1418  1420    1
  1243  1418  1421    1
  1244  1419  1422    1
  1245  1419  1423    1
  1246  1419  1424    1
  1247  1425  1426    1
  1248  1426  1427    1
  1249  1426  1428    1
  1250  1426  1429    1
  1251  1427  1430    1
  1252  1427  1431    1
  1253  1427  1432    1
  1254  1433  1434    1
  1255  1434  1435    1
  1256  1434  1436    1
  1257  1434  1437    1
  1258  1435  1438    1
  1259  1435  1439    1
  1260  1435  1440    1
  1261  1441  1442    1
  1262  1442  1443    1
  1263  1442  1444    1
  1264  1442  1445    1
  1265  1443  1446    1
  1266  1443  1447    1
  1267  1443  1448    1
  1268  1449  1450    1
  1269  1450  1451    1
  1270  1450  1452    1
  1271  1450  1453    1
  1272  1451  1454    1
  1273  1451  1455    1
  1274  1451  1456    1
