@<TRIPOS>MOLECULE
*****
 704 616 0 0 0
SMALL
GASTEIGER

@<TRIPOS>ATOM
      1 CL          1.8969    1.2353   -1.0112 Cl      1  UNL1       -0.1257
      2 C           0.3544    0.3536   -1.0112 C.3     1  UNL1        0.0198
      3 C          -0.8101    1.3214   -1.0112 C.3     1  UNL1       -0.0517
      4 H           0.3298   -0.2835   -1.8998 H       1  UNL1        0.0427
      5 H           0.3298   -0.2835   -0.1227 H       1  UNL1        0.0427
      6 H          -1.7570    0.7721   -1.0112 H       1  UNL1        0.0241
      7 H          -0.7928    1.9626   -0.1238 H       1  UNL1        0.0241
      8 H          -0.7928    1.9626   -1.8986 H       1  UNL1        0.0241
      9 CL          2.5844    0.2822    1.5739 Cl      2  UNL2       -0.1257
     10 C           1.0419   -0.5995    1.5739 C.3     2  UNL2        0.0198
     11 C          -0.1226    0.3683    1.5739 C.3     2  UNL2       -0.0517
     12 H           1.0173   -1.2366    0.6853 H       2  UNL2        0.0427
     13 H           1.0173   -1.2366    2.4624 H       2  UNL2        0.0427
     14 H          -1.0695   -0.1810    1.5739 H       2  UNL2        0.0241
     15 H          -0.1053    1.0095    2.4613 H       2  UNL2        0.0241
     16 H          -0.1053    1.0095    0.6865 H       2  UNL2        0.0241
     17 CL          2.6469    1.0478    4.1590 Cl      3  UNL3       -0.1257
     18 C           1.1044    0.1661    4.1590 C.3     3  UNL3        0.0198
     19 C          -0.0601    1.1339    4.1590 C.3     3  UNL3       -0.0517
     20 H           1.0798   -0.4710    3.2704 H       3  UNL3        0.0427
     21 H           1.0798   -0.4710    5.0475 H       3  UNL3        0.0427
     22 H          -1.0070    0.5846    4.1590 H       3  UNL3        0.0241
     23 H          -0.0428    1.7751    5.0464 H       3  UNL3        0.0241
     24 H          -0.0428    1.7751    3.2716 H       3  UNL3        0.0241
     25 CL          2.3344    0.4072    6.7441 Cl      4  UNL4       -0.1257
     26 C           0.7919   -0.4745    6.7441 C.3     4  UNL4        0.0198
     27 C          -0.3726    0.4933    6.7441 C.3     4  UNL4       -0.0517
     28 H           0.7673   -1.1116    5.8555 H       4  UNL4        0.0427
     29 H           0.7673   -1.1116    7.6326 H       4  UNL4        0.0427
     30 H          -1.3195   -0.0560    6.7441 H       4  UNL4        0.0241
     31 H          -0.3553    1.1345    7.6315 H       4  UNL4        0.0241
     32 H          -0.3553    1.1345    5.8567 H       4  UNL4        0.0241
     33 CL          2.6469    0.9853    9.3292 Cl      5  UNL5       -0.1257
     34 C           1.1044    0.1036    9.3292 C.3     5  UNL5        0.0198
     35 C          -0.0601    1.0714    9.3292 C.3     5  UNL5       -0.0517
     36 H           1.0798   -0.5335    8.4406 H       5  UNL5        0.0427
     37 H           1.0798   -0.5335   10.2177 H       5  UNL5        0.0427
     38 H          -1.0070    0.5221    9.3292 H       5  UNL5        0.0241
     39 H          -0.0428    1.7126   10.2166 H       5  UNL5        0.0241
     40 H          -0.0428    1.7126    8.4418 H       5  UNL5        0.0241
     41 CL          2.1557    1.0166   13.1696 Cl      6  UNL6       -0.1257
     42 C           0.9354    0.1349   12.2261 C.3     6  UNL6        0.0198
     43 C           0.0142    1.1027   11.5138 C.3     6  UNL6       -0.0517
     44 H           1.4595   -0.5022   11.5080 H       6  UNL6        0.0427
     45 H           0.3725   -0.5022   12.9139 H       6  UNL6        0.0427
     46 H          -0.7349    0.5534   10.9346 H       6  UNL6        0.0241
     47 H          -0.5150    1.7439   12.2264 H       6  UNL6        0.0241
     48 H           0.5706    1.7439   10.8223 H       6  UNL6        0.0241
     49 CL          2.6469    0.7666   14.4994 Cl      7  UNL7       -0.1257
     50 C           1.1044   -0.1151   14.4994 C.3     7  UNL7        0.0198
     51 C          -0.0601    0.8527   14.4994 C.3     7  UNL7       -0.0517
     52 H           1.0798   -0.7522   13.6108 H       7  UNL7        0.0427
     53 H           1.0798   -0.7522   15.3879 H       7  UNL7        0.0427
     54 H          -1.0070    0.3034   14.4994 H       7  UNL7        0.0241
     55 H          -0.0428    1.4939   15.3868 H       7  UNL7        0.0241
     56 H          -0.0428    1.4939   13.6120 H       7  UNL7        0.0241
     57 CL          2.6469    1.8291   17.0846 Cl      8  UNL8       -0.1257
     58 C           1.1044    0.9474   17.0846 C.3     8  UNL8        0.0198
     59 C          -0.0601    1.9152   17.0846 C.3     8  UNL8       -0.0517
     60 H           1.0798    0.3103   16.1960 H       8  UNL8        0.0427
     61 H           1.0798    0.3103   17.9731 H       8  UNL8        0.0427
     62 H          -1.0070    1.3659   17.0846 H       8  UNL8        0.0241
     63 H          -0.0428    2.5564   17.9720 H       8  UNL8        0.0241
     64 H          -0.0428    2.5564   16.1972 H       8  UNL8        0.0241
     65 CL          2.3812    1.2353   19.6697 Cl      9  UNL9       -0.1257
     66 C           0.8387    0.3536   19.6697 C.3     9  UNL9        0.0198
     67 C          -0.3258    1.3214   19.6697 C.3     9  UNL9       -0.0517
     68 H           0.8141   -0.2835   18.7811 H       9  UNL9        0.0427
     69 H           0.8141   -0.2835   20.5582 H       9  UNL9        0.0427
     70 H          -1.2727    0.7721   19.6697 H       9  UNL9        0.0241
     71 H          -0.3085    1.9626   20.5571 H       9  UNL9        0.0241
     72 H          -0.3085    1.9626   18.7823 H       9  UNL9        0.0241
     73 CL          2.5844    0.1416   22.2548 Cl     10  UNL10      -0.1257
     74 C           1.0419   -0.7401   22.2548 C.3    10  UNL10       0.0198
     75 C          -0.1226    0.2277   22.2548 C.3    10  UNL10      -0.0517
     76 H           1.0173   -1.3772   21.3662 H      10  UNL10       0.0427
     77 H           1.0173   -1.3772   23.1433 H      10  UNL10       0.0427
     78 H          -1.0695   -0.3216   22.2548 H      10  UNL10       0.0241
     79 H          -0.1053    0.8689   23.1422 H      10  UNL10       0.0241
     80 H          -0.1053    0.8689   21.3674 H      10  UNL10       0.0241
     81 CL          2.6469    1.0478   24.8399 Cl     11  UNL11      -0.1257
     82 C           1.1044    0.1661   24.8399 C.3    11  UNL11       0.0198
     83 C          -0.0601    1.1339   24.8399 C.3    11  UNL11      -0.0517
     84 H           1.0798   -0.4710   23.9513 H      11  UNL11       0.0427
     85 H           1.0798   -0.4710   25.7284 H      11  UNL11       0.0427
     86 H          -1.0070    0.5846   24.8399 H      11  UNL11       0.0241
     87 H          -0.0428    1.7751   25.7273 H      11  UNL11       0.0241
     88 H          -0.0428    1.7751   23.9525 H      11  UNL11       0.0241
     89 CL          1.9057    0.2822   26.1698 Cl     12  UNL12      -0.1257
     90 C           0.6854   -0.5995   27.1133 C.3    12  UNL12       0.0198
     91 C          -0.2358    0.3683   27.8256 C.3    12  UNL12      -0.0517
     92 H           0.1224   -1.2366   26.4254 H      12  UNL12       0.0427
     93 H           1.2094   -1.2366   27.8312 H      12  UNL12       0.0427
     94 H          -0.9849   -0.1810   28.4048 H      12  UNL12       0.0241
     95 H           0.3207    1.0095   28.5170 H      12  UNL12       0.0241
     96 H          -0.7650    1.0095   27.1130 H      12  UNL12       0.0241
     97 CL          2.2250    3.1409   -1.0112 Cl     13  UNL13      -0.1257
     98 C           0.6825    2.2592   -1.0112 C.3    13  UNL13       0.0198
     99 C          -0.4820    3.2270   -1.0112 C.3    13  UNL13      -0.0517
    100 H           0.6579    1.6221   -1.8998 H      13  UNL13       0.0427
    101 H           0.6579    1.6221   -0.1227 H      13  UNL13       0.0427
    102 H          -1.4289    2.6777   -1.0112 H      13  UNL13       0.0241
    103 H          -0.4647    3.8682   -0.1238 H      13  UNL13       0.0241
    104 H          -0.4647    3.8682   -1.8986 H      13  UNL13       0.0241
    105 CL          2.6937    3.1565    4.1590 Cl     14  UNL14      -0.1257
    106 C           1.1512    2.2748    4.1590 C.3    14  UNL14       0.0198
    107 C          -0.0133    3.2426    4.1590 C.3    14  UNL14      -0.0517
    108 H           1.1266    1.6377    3.2704 H      14  UNL14       0.0427
    109 H           1.1266    1.6377    5.0475 H      14  UNL14       0.0427
    110 H          -0.9602    2.6933    4.1590 H      14  UNL14       0.0241
    111 H           0.0040    3.8838    5.0464 H      14  UNL14       0.0241
    112 H           0.0040    3.8838    3.2716 H      14  UNL14       0.0241
    113 CL          2.6469    3.1409   14.4994 Cl     15  UNL15      -0.1257
    114 C           1.1044    2.2592   14.4994 C.3    15  UNL15       0.0198
    115 C          -0.0601    3.2270   14.4994 C.3    15  UNL15      -0.0517
    116 H           1.0798    1.6221   13.6108 H      15  UNL15       0.0427
    117 H           1.0798    1.6221   15.3879 H      15  UNL15       0.0427
    118 H          -1.0070    2.6777   14.4994 H      15  UNL15       0.0241
    119 H          -0.0428    3.8682   15.3868 H      15  UNL15       0.0241
    120 H          -0.0428    3.8682   13.6120 H      15  UNL15       0.0241
    121 CL          2.5375    3.0784   19.6697 Cl     16  UNL16      -0.1257
    122 C           0.9950    2.1967   19.6697 C.3    16  UNL16       0.0198
    123 C          -0.1695    3.1645   19.6697 C.3    16  UNL16      -0.0517
    124 H           0.9704    1.5596   18.7811 H      16  UNL16       0.0427
    125 H           0.9704    1.5596   20.5582 H      16  UNL16       0.0427
    126 H          -1.1164    2.6152   19.6697 H      16  UNL16       0.0241
    127 H          -0.1522    3.8057   20.5571 H      16  UNL16       0.0241
    128 H          -0.1522    3.8057   18.7823 H      16  UNL16       0.0241
    129 CL          2.6469    2.9690   24.8399 Cl     17  UNL17      -0.1257
    130 C           1.1044    2.0873   24.8399 C.3    17  UNL17       0.0198
    131 C          -0.0601    3.0551   24.8399 C.3    17  UNL17      -0.0517
    132 H           1.0798    1.4502   23.9513 H      17  UNL17       0.0427
    133 H           1.0798    1.4502   25.7284 H      17  UNL17       0.0427
    134 H          -1.0070    2.5058   24.8399 H      17  UNL17       0.0241
    135 H          -0.0428    3.6963   25.7273 H      17  UNL17       0.0241
    136 H          -0.0428    3.6963   23.9525 H      17  UNL17       0.0241
    137 CL          2.3344    3.2503   27.4250 Cl     18  UNL18      -0.1257
    138 C           0.7919    2.3686   27.4250 C.3    18  UNL18       0.0198
    139 C          -0.3726    3.3364   27.4250 C.3    18  UNL18      -0.0517
    140 H           0.7673    1.7315   26.5364 H      18  UNL18       0.0427
    141 H           0.7673    1.7315   28.3135 H      18  UNL18       0.0427
    142 H          -1.3195    2.7871   27.4250 H      18  UNL18       0.0241
    143 H          -0.3553    3.9776   28.3124 H      18  UNL18       0.0241
    144 H          -0.3553    3.9776   26.5376 H      18  UNL18       0.0241
    145 CL          0.7359    0.0628   30.7450 Cl     19  UNL19      -0.1257
    146 C          -0.6162    0.8029   29.8613 C.3    19  UNL19       0.0198
    147 C          -0.7291    2.2745   30.1995 C.3    19  UNL19      -0.0517
    148 H          -0.4371    0.6629   28.7915 H      19  UNL19       0.0427
    149 H          -1.5308    0.2700   30.1359 H      19  UNL19       0.0427
    150 H          -1.5636    2.7243   29.6520 H      19  UNL19       0.0241
    151 H          -0.9092    2.4228   31.2693 H      19  UNL19       0.0241
    152 H           0.1830    2.8152   29.9266 H      19  UNL19       0.0241
    153 CL          6.8744    1.3134   -0.5668 Cl     20  UNL20      -0.1257
    154 C           5.3319    0.4317   -0.5668 C.3    20  UNL20       0.0198
    155 C           4.1674    1.3995   -0.5668 C.3    20  UNL20      -0.0517
    156 H           5.3073   -0.2054   -1.4554 H      20  UNL20       0.0427
    157 H           5.3073   -0.2054    0.3217 H      20  UNL20       0.0427
    158 H           3.2205    0.8502   -0.5668 H      20  UNL20       0.0241
    159 H           4.1847    2.0407    0.3206 H      20  UNL20       0.0241
    160 H           4.1847    2.0407   -1.4542 H      20  UNL20       0.0241
    161 CL          6.8744    0.2978    2.7684 Cl     21  UNL21      -0.1257
    162 C           5.3319   -0.5839    2.7684 C.3    21  UNL21       0.0198
    163 C           4.1674    0.3839    2.7684 C.3    21  UNL21      -0.0517
    164 H           5.3073   -1.2210    1.8798 H      21  UNL21       0.0427
    165 H           5.3073   -1.2210    3.6569 H      21  UNL21       0.0427
    166 H           3.2205   -0.1654    2.7684 H      21  UNL21       0.0241
    167 H           4.1847    1.0251    3.6558 H      21  UNL21       0.0241
    168 H           4.1847    1.0251    1.8810 H      21  UNL21       0.0241
    169 CL          6.8744    1.0478   16.2963 Cl     22  UNL22      -0.1257
    170 C           5.3319    0.1661   16.2963 C.3    22  UNL22       0.0198
    171 C           4.1674    1.1339   16.2963 C.3    22  UNL22      -0.0517
    172 H           5.3073   -0.4710   15.4077 H      22  UNL22       0.0427
    173 H           5.3073   -0.4710   17.1848 H      22  UNL22       0.0427
    174 H           3.2205    0.5846   16.2963 H      22  UNL22       0.0241
    175 H           4.1847    1.7751   17.1837 H      22  UNL22       0.0241
    176 H           4.1847    1.7751   15.4089 H      22  UNL22       0.0241
    177 CL          7.0775    1.2978   20.3642 Cl     23  UNL23      -0.1257
    178 C           5.5350    0.4161   20.3642 C.3    23  UNL23       0.0198
    179 C           4.3705    1.3839   20.3642 C.3    23  UNL23      -0.0517
    180 H           5.5104   -0.2210   19.4756 H      23  UNL23       0.0427
    181 H           5.5104   -0.2210   21.2527 H      23  UNL23       0.0427
    182 H           3.4236    0.8346   20.3642 H      23  UNL23       0.0241
    183 H           4.3878    2.0251   21.2516 H      23  UNL23       0.0241
    184 H           4.3878    2.0251   19.4768 H      23  UNL23       0.0241
    185 CL          6.8744    0.9384   23.2462 Cl     24  UNL24      -0.1257
    186 C           5.3319    0.0567   23.2462 C.3    24  UNL24       0.0198
    187 C           4.1674    1.0245   23.2462 C.3    24  UNL24      -0.0517
    188 H           5.3073   -0.5804   22.3576 H      24  UNL24       0.0427
    189 H           5.3073   -0.5804   24.1347 H      24  UNL24       0.0427
    190 H           3.2205    0.4752   23.2462 H      24  UNL24       0.0241
    191 H           4.1847    1.6657   24.1336 H      24  UNL24       0.0241
    192 H           4.1847    1.6657   22.3588 H      24  UNL24       0.0241
    193 CL          4.1244    1.8916   29.7601 Cl     25  UNL25      -0.1257
    194 C           2.5819    1.0099   29.7601 C.3    25  UNL25       0.0198
    195 C           1.4174    1.9777   29.7601 C.3    25  UNL25      -0.0517
    196 H           2.5573    0.3728   28.8715 H      25  UNL25       0.0427
    197 H           2.5573    0.3728   30.6486 H      25  UNL25       0.0427
    198 H           0.4705    1.4284   29.7601 H      25  UNL25       0.0241
    199 H           1.4347    2.6189   30.6475 H      25  UNL25       0.0241
    200 H           1.4347    2.6189   28.8727 H      25  UNL25       0.0241
    201 CL          6.8744    2.4378    2.5496 Cl     26  UNL26      -0.1257
    202 C           5.3319    1.5561    2.5496 C.3    26  UNL26       0.0198
    203 C           4.1674    2.5239    2.5496 C.3    26  UNL26      -0.0517
    204 H           5.3073    0.9190    1.6610 H      26  UNL26       0.0427
    205 H           5.3073    0.9190    3.4381 H      26  UNL26       0.0427
    206 H           3.2205    1.9746    2.5496 H      26  UNL26       0.0241
    207 H           4.1847    3.1651    3.4370 H      26  UNL26       0.0241
    208 H           4.1847    3.1651    1.6622 H      26  UNL26       0.0241
    209 CL          4.4378    1.6604    8.2337 Cl     27  UNL27      -0.1257
    210 C           3.5474    0.9629    6.8636 C.3    27  UNL27       0.0198
    211 C           2.2641    1.7285    6.6196 C.3    27  UNL27      -0.0517
    212 H           4.1963    1.0024    5.9841 H      27  UNL27       0.0427
    213 H           3.3364   -0.0846    7.0963 H      27  UNL27       0.0427
    214 H           1.7205    1.2940    5.7746 H      27  UNL27       0.0241
    215 H           1.6084    1.6930    7.4958 H      27  UNL27       0.0241
    216 H           2.4673    2.7786    6.3851 H      27  UNL27       0.0241
    217 CL          6.8744    2.5159    9.8206 Cl     28  UNL28      -0.1257
    218 C           5.3319    1.6342    9.8206 C.3    28  UNL28       0.0198
    219 C           4.1674    2.6020    9.8206 C.3    28  UNL28      -0.0517
    220 H           5.3073    0.9971    8.9320 H      28  UNL28       0.0427
    221 H           5.3073    0.9971   10.7091 H      28  UNL28       0.0427
    222 H           3.2205    2.0527    9.8206 H      28  UNL28       0.0241
    223 H           4.1847    3.2432   10.7080 H      28  UNL28       0.0241
    224 H           4.1847    3.2432    8.9332 H      28  UNL28       0.0241
    225 CL          6.8744    3.1721   12.4994 Cl     29  UNL29      -0.1257
    226 C           5.3319    2.2904   12.4994 C.3    29  UNL29       0.0198
    227 C           4.1674    3.2582   12.4994 C.3    29  UNL29      -0.0517
    228 H           5.3073    1.6533   11.6108 H      29  UNL29       0.0427
    229 H           5.3073    1.6533   13.3879 H      29  UNL29       0.0427
    230 H           3.2205    2.7089   12.4994 H      29  UNL29       0.0241
    231 H           4.1847    3.8994   13.3868 H      29  UNL29       0.0241
    232 H           4.1847    3.8994   11.6120 H      29  UNL29       0.0241
    233 CL          6.8744    2.8753   23.2305 Cl     30  UNL30      -0.1257
    234 C           5.3319    1.9936   23.2305 C.3    30  UNL30       0.0198
    235 C           4.1674    2.9614   23.2305 C.3    30  UNL30      -0.0517
    236 H           5.3073    1.3565   22.3419 H      30  UNL30       0.0427
    237 H           5.3073    1.3565   24.1190 H      30  UNL30       0.0427
    238 H           3.2205    2.4121   23.2305 H      30  UNL30       0.0241
    239 H           4.1847    3.6026   24.1179 H      30  UNL30       0.0241
    240 H           4.1847    3.6026   22.3431 H      30  UNL30       0.0241
    241 CL          5.0306    1.7971   27.4250 Cl     31  UNL31      -0.1257
    242 C           3.4881    0.9154   27.4250 C.3    31  UNL31       0.0198
    243 C           2.3236    1.8832   27.4250 C.3    31  UNL31      -0.0517
    244 H           3.4635    0.2783   26.5364 H      31  UNL31       0.0427
    245 H           3.4635    0.2783   28.3135 H      31  UNL31       0.0427
    246 H           1.3767    1.3339   27.4250 H      31  UNL31       0.0241
    247 H           2.3409    2.5244   28.3124 H      31  UNL31       0.0241
    248 H           2.3409    2.5244   26.5376 H      31  UNL31       0.0241
    249 CL          4.9994    1.7971   31.1039 Cl     32  UNL32      -0.1257
    250 C           3.4569    0.9154   31.1039 C.3    32  UNL32       0.0198
    251 C           2.2924    1.8832   31.1039 C.3    32  UNL32      -0.0517
    252 H           3.4323    0.2783   30.2153 H      32  UNL32       0.0427
    253 H           3.4323    0.2783   31.9924 H      32  UNL32       0.0427
    254 H           1.3455    1.3339   31.1039 H      32  UNL32       0.0241
    255 H           2.3097    2.5244   31.9913 H      32  UNL32       0.0241
    256 H           2.3097    2.5244   30.2165 H      32  UNL32       0.0241
    257 CL         11.1019    1.3134    1.5739 Cl     33  UNL33      -0.1257
    258 C           9.5594    0.4317    1.5739 C.3    33  UNL33       0.0198
    259 C           8.3949    1.3995    1.5739 C.3    33  UNL33      -0.0517
    260 H           9.5348   -0.2054    0.6853 H      33  UNL33       0.0427
    261 H           9.5348   -0.2054    2.4624 H      33  UNL33       0.0427
    262 H           7.4480    0.8502    1.5739 H      33  UNL33       0.0241
    263 H           8.4122    2.0407    2.4613 H      33  UNL33       0.0241
    264 H           8.4122    2.0407    0.6865 H      33  UNL33       0.0241
    265 CL         11.1019    0.3134    4.1590 Cl     34  UNL34      -0.1257
    266 C           9.5594   -0.5683    4.1590 C.3    34  UNL34       0.0198
    267 C           8.3949    0.3995    4.1590 C.3    34  UNL34      -0.0517
    268 H           9.5348   -1.2054    3.2704 H      34  UNL34       0.0427
    269 H           9.5348   -1.2054    5.0475 H      34  UNL34       0.0427
    270 H           7.4480   -0.1498    4.1590 H      34  UNL34       0.0241
    271 H           8.4122    1.0407    5.0464 H      34  UNL34       0.0241
    272 H           8.4122    1.0407    3.2716 H      34  UNL34       0.0241
    273 CL         11.1019    1.2978    6.7441 Cl     35  UNL35      -0.1257
    274 C           9.5594    0.4161    6.7441 C.3    35  UNL35       0.0198
    275 C           8.3949    1.3839    6.7441 C.3    35  UNL35      -0.0517
    276 H           9.5348   -0.2210    5.8555 H      35  UNL35       0.0427
    277 H           9.5348   -0.2210    7.6326 H      35  UNL35       0.0427
    278 H           7.4480    0.8346    6.7441 H      35  UNL35       0.0241
    279 H           8.4122    2.0251    7.6315 H      35  UNL35       0.0241
    280 H           8.4122    2.0251    5.8567 H      35  UNL35       0.0241
    281 CL         10.7894    0.3916    9.3292 Cl     36  UNL36      -0.1257
    282 C           9.2469   -0.4901    9.3292 C.3    36  UNL36       0.0198
    283 C           8.0824    0.4777    9.3292 C.3    36  UNL36      -0.0517
    284 H           9.2223   -1.1272    8.4406 H      36  UNL36       0.0427
    285 H           9.2223   -1.1272   10.2177 H      36  UNL36       0.0427
    286 H           7.1355   -0.0716    9.3292 H      36  UNL36       0.0241
    287 H           8.0997    1.1189   10.2166 H      36  UNL36       0.0241
    288 H           8.0997    1.1189    8.4418 H      36  UNL36       0.0241
    289 CL         11.1019    1.3134   11.9143 Cl     37  UNL37      -0.1257
    290 C           9.5594    0.4317   11.9143 C.3    37  UNL37       0.0198
    291 C           8.3949    1.3995   11.9143 C.3    37  UNL37      -0.0517
    292 H           9.5348   -0.2054   11.0257 H      37  UNL37       0.0427
    293 H           9.5348   -0.2054   12.8028 H      37  UNL37       0.0427
    294 H           7.4480    0.8502   11.9143 H      37  UNL37       0.0241
    295 H           8.4122    2.0407   12.8017 H      37  UNL37       0.0241
    296 H           8.4122    2.0407   11.0269 H      37  UNL37       0.0241
    297 CL         11.1019    1.0009   14.4994 Cl     38  UNL38      -0.1257
    298 C           9.5594    0.1192   14.4994 C.3    38  UNL38       0.0198
    299 C           8.3949    1.0870   14.4994 C.3    38  UNL38      -0.0517
    300 H           9.5348   -0.5179   13.6108 H      38  UNL38       0.0427
    301 H           9.5348   -0.5179   15.3879 H      38  UNL38       0.0427
    302 H           7.4480    0.5377   14.4994 H      38  UNL38       0.0241
    303 H           8.4122    1.7282   15.3868 H      38  UNL38       0.0241
    304 H           8.4122    1.7282   13.6120 H      38  UNL38       0.0241
    305 CL         10.6108    0.7666   15.8293 Cl     39  UNL39      -0.1257
    306 C           9.3905   -0.1151   16.7728 C.3    39  UNL39       0.0198
    307 C           8.4692    0.8527   17.4851 C.3    39  UNL39      -0.0517
    308 H           8.8275   -0.7522   16.0849 H      39  UNL39       0.0427
    309 H           9.9145   -0.7522   17.4908 H      39  UNL39       0.0427
    310 H           7.7201    0.3034   18.0643 H      39  UNL39       0.0241
    311 H           9.0257    1.4939   18.1766 H      39  UNL39       0.0241
    312 H           7.9401    1.4939   16.7725 H      39  UNL39       0.0241
    313 CL         11.1019    0.3759   19.6697 Cl     40  UNL40      -0.1257
    314 C           9.5594   -0.5058   19.6697 C.3    40  UNL40       0.0198
    315 C           8.3949    0.4620   19.6697 C.3    40  UNL40      -0.0517
    316 H           9.5348   -1.1429   18.7811 H      40  UNL40       0.0427
    317 H           9.5348   -1.1429   20.5582 H      40  UNL40       0.0427
    318 H           7.4480   -0.0873   19.6697 H      40  UNL40       0.0241
    319 H           8.4122    1.1032   20.5571 H      40  UNL40       0.0241
    320 H           8.4122    1.1032   18.7823 H      40  UNL40       0.0241
    321 CL         10.7269    0.8447   22.2548 Cl     41  UNL41      -0.1257
    322 C           9.1844   -0.0370   22.2548 C.3    41  UNL41       0.0198
    323 C           8.0199    0.9308   22.2548 C.3    41  UNL41      -0.0517
    324 H           9.1598   -0.6741   21.3662 H      41  UNL41       0.0427
    325 H           9.1598   -0.6741   23.1433 H      41  UNL41       0.0427
    326 H           7.0730    0.3815   22.2548 H      41  UNL41       0.0241
    327 H           8.0372    1.5720   23.1422 H      41  UNL41       0.0241
    328 H           8.0372    1.5720   21.3674 H      41  UNL41       0.0241
    329 CL         11.0394    1.4228   24.8399 Cl     42  UNL42      -0.1257
    330 C           9.4969    0.5411   24.8399 C.3    42  UNL42       0.0198
    331 C           8.3324    1.5089   24.8399 C.3    42  UNL42      -0.0517
    332 H           9.4723   -0.0960   23.9513 H      42  UNL42       0.0427
    333 H           9.4723   -0.0960   25.7284 H      42  UNL42       0.0427
    334 H           7.3855    0.9596   24.8399 H      42  UNL42       0.0241
    335 H           8.3497    2.1501   25.7273 H      42  UNL42       0.0241
    336 H           8.3497    2.1501   23.9525 H      42  UNL42       0.0241
    337 CL         11.1019    0.7666   27.4250 Cl     43  UNL43      -0.1257
    338 C           9.5594   -0.1151   27.4250 C.3    43  UNL43       0.0198
    339 C           8.3949    0.8527   27.4250 C.3    43  UNL43      -0.0517
    340 H           9.5348   -0.7522   26.5364 H      43  UNL43       0.0427
    341 H           9.5348   -0.7522   28.3135 H      43  UNL43       0.0427
    342 H           7.4480    0.3034   27.4250 H      43  UNL43       0.0241
    343 H           8.4122    1.4939   28.3124 H      43  UNL43       0.0241
    344 H           8.4122    1.4939   26.5376 H      43  UNL43       0.0241
    345 CL         11.1019    0.9541   31.1039 Cl     44  UNL44      -0.1257
    346 C           9.5594    0.0724   31.1039 C.3    44  UNL44       0.0198
    347 C           8.3949    1.0402   31.1039 C.3    44  UNL44      -0.0517
    348 H           9.5348   -0.5647   30.2153 H      44  UNL44       0.0427
    349 H           9.5348   -0.5647   31.9924 H      44  UNL44       0.0427
    350 H           7.4480    0.4909   31.1039 H      44  UNL44       0.0241
    351 H           8.4122    1.6814   31.9913 H      44  UNL44       0.0241
    352 H           8.4122    1.6814   30.2165 H      44  UNL44       0.0241
    353 CL         11.0394    3.4534    4.1590 Cl     45  UNL45      -0.1257
    354 C           9.4969    2.5717    4.1590 C.3    45  UNL45       0.0198
    355 C           8.3324    3.5395    4.1590 C.3    45  UNL45      -0.0517
    356 H           9.4723    1.9346    3.2704 H      45  UNL45       0.0427
    357 H           9.4723    1.9346    5.0475 H      45  UNL45       0.0427
    358 H           7.3855    2.9902    4.1590 H      45  UNL45       0.0241
    359 H           8.3497    4.1807    5.0464 H      45  UNL45       0.0241
    360 H           8.3497    4.1807    3.2716 H      45  UNL45       0.0241
    361 CL         11.1644    3.0940    6.7441 Cl     46  UNL46      -0.1257
    362 C           9.6219    2.2123    6.7441 C.3    46  UNL46       0.0198
    363 C           8.4574    3.1801    6.7441 C.3    46  UNL46      -0.0517
    364 H           9.5973    1.5752    5.8555 H      46  UNL46       0.0427
    365 H           9.5973    1.5752    7.6326 H      46  UNL46       0.0427
    366 H           7.5105    2.6308    6.7441 H      46  UNL46       0.0241
    367 H           8.4747    3.8213    7.6315 H      46  UNL46       0.0241
    368 H           8.4747    3.8213    5.8567 H      46  UNL46       0.0241
    369 CL         11.1019    3.0003   11.8518 Cl     47  UNL47      -0.1257
    370 C           9.5594    2.1186   11.8518 C.3    47  UNL47       0.0198
    371 C           8.3949    3.0864   11.8518 C.3    47  UNL47      -0.0517
    372 H           9.5348    1.4815   10.9632 H      47  UNL47       0.0427
    373 H           9.5348    1.4815   12.7403 H      47  UNL47       0.0427
    374 H           7.4480    2.5371   11.8518 H      47  UNL47       0.0241
    375 H           8.4122    3.7276   12.7392 H      47  UNL47       0.0241
    376 H           8.4122    3.7276   10.9644 H      47  UNL47       0.0241
    377 CL         11.0394    3.3440   24.8399 Cl     48  UNL48      -0.1257
    378 C           9.4969    2.4623   24.8399 C.3    48  UNL48       0.0198
    379 C           8.3324    3.4301   24.8399 C.3    48  UNL48      -0.0517
    380 H           9.4723    1.8252   23.9513 H      48  UNL48       0.0427
    381 H           9.4723    1.8252   25.7284 H      48  UNL48       0.0427
    382 H           7.3855    2.8808   24.8399 H      48  UNL48       0.0241
    383 H           8.3497    4.0713   25.7273 H      48  UNL48       0.0241
    384 H           8.3497    4.0713   23.9525 H      48  UNL48       0.0241
    385 CL         11.1019    2.7503   27.4250 Cl     49  UNL49      -0.1257
    386 C           9.5594    1.8686   27.4250 C.3    49  UNL49       0.0198
    387 C           8.3949    2.8364   27.4250 C.3    49  UNL49      -0.0517
    388 H           9.5348    1.2315   26.5364 H      49  UNL49       0.0427
    389 H           9.5348    1.2315   28.3135 H      49  UNL49       0.0427
    390 H           7.4480    2.2871   27.4250 H      49  UNL49       0.0241
    391 H           8.4122    3.4776   28.3124 H      49  UNL49       0.0241
    392 H           8.4122    3.4776   26.5376 H      49  UNL49       0.0241
    393 CL         15.3295    1.0478    5.7684 Cl     50  UNL50      -0.1257
    394 C          13.7870    0.1661    5.7684 C.3    50  UNL50       0.0198
    395 C          12.6225    1.1339    5.7684 C.3    50  UNL50      -0.0517
    396 H          13.7624   -0.4710    4.8798 H      50  UNL50       0.0427
    397 H          13.7624   -0.4710    6.6569 H      50  UNL50       0.0427
    398 H          11.6756    0.5846    5.7684 H      50  UNL50       0.0241
    399 H          12.6398    1.7751    6.6558 H      50  UNL50       0.0241
    400 H          12.6398    1.7751    4.8810 H      50  UNL50       0.0241
    401 CL         14.9008    0.8603   16.4023 Cl     51  UNL51      -0.1257
    402 C          13.6805   -0.0214   15.4588 C.3    51  UNL51       0.0198
    403 C          12.7593    0.9464   14.7465 C.3    51  UNL51      -0.0517
    404 H          14.2046   -0.6585   14.7408 H      51  UNL51       0.0427
    405 H          13.1176   -0.6585   16.1466 H      51  UNL51       0.0427
    406 H          12.0102    0.3971   14.1673 H      51  UNL51       0.0241
    407 H          12.2301    1.5876   15.4591 H      51  UNL51       0.0241
    408 H          13.3157    1.5876   14.0550 H      51  UNL51       0.0241
    409 CL         15.3295    1.2978   18.3572 Cl     52  UNL52      -0.1257
    410 C          13.7870    0.4161   18.3572 C.3    52  UNL52       0.0198
    411 C          12.6225    1.3839   18.3572 C.3    52  UNL52      -0.0517
    412 H          13.7624   -0.2210   17.4686 H      52  UNL52       0.0427
    413 H          13.7624   -0.2210   19.2457 H      52  UNL52       0.0427
    414 H          11.6756    0.8346   18.3572 H      52  UNL52       0.0241
    415 H          12.6398    2.0251   19.2446 H      52  UNL52       0.0241
    416 H          12.6398    2.0251   17.4698 H      52  UNL52       0.0241
    417 CL         15.4232    1.2978   22.9805 Cl     53  UNL53      -0.1257
    418 C          13.8807    0.4161   22.9805 C.3    53  UNL53       0.0198
    419 C          12.7162    1.3839   22.9805 C.3    53  UNL53      -0.0517
    420 H          13.8561   -0.2210   22.0919 H      53  UNL53       0.0427
    421 H          13.8561   -0.2210   23.8690 H      53  UNL53       0.0427
    422 H          11.7693    0.8346   22.9805 H      53  UNL53       0.0241
    423 H          12.7335    2.0251   23.8679 H      53  UNL53       0.0241
    424 H          12.7335    2.0251   22.0931 H      53  UNL53       0.0241
    425 CL         15.3295    0.8291   25.8313 Cl     54  UNL54      -0.1257
    426 C          13.7870   -0.0526   25.8313 C.3    54  UNL54       0.0198
    427 C          12.6225    0.9152   25.8313 C.3    54  UNL54      -0.0517
    428 H          13.7624   -0.6897   24.9427 H      54  UNL54       0.0427
    429 H          13.7624   -0.6897   26.7198 H      54  UNL54       0.0427
    430 H          11.6756    0.3659   25.8313 H      54  UNL54       0.0241
    431 H          12.6398    1.5564   26.7187 H      54  UNL54       0.0241
    432 H          12.6398    1.5564   24.9439 H      54  UNL54       0.0241
    433 CL         15.0795    0.0478   29.7601 Cl     55  UNL55      -0.1257
    434 C          13.5370   -0.8339   29.7601 C.3    55  UNL55       0.0198
    435 C          12.3725    0.1339   29.7601 C.3    55  UNL55      -0.0517
    436 H          13.5124   -1.4710   28.8715 H      55  UNL55       0.0427
    437 H          13.5124   -1.4710   30.6486 H      55  UNL55       0.0427
    438 H          11.4256   -0.4154   29.7601 H      55  UNL55       0.0241
    439 H          12.3898    0.7751   30.6475 H      55  UNL55       0.0241
    440 H          12.3898    0.7751   28.8727 H      55  UNL55       0.0241
    441 CL         12.8929    1.6604   10.8189 Cl     56  UNL56      -0.1257
    442 C          12.0025    0.9629    9.4487 C.3    56  UNL56       0.0198
    443 C          10.7191    1.7285    9.2047 C.3    56  UNL56      -0.0517
    444 H          12.6514    1.0024    8.5692 H      56  UNL56       0.0427
    445 H          11.7914   -0.0846    9.6814 H      56  UNL56       0.0427
    446 H          10.1756    1.2940    8.3597 H      56  UNL56       0.0241
    447 H          10.0635    1.6930   10.0809 H      56  UNL56       0.0241
    448 H          10.9223    2.7786    8.9702 H      56  UNL56       0.0241
    449 CL         15.3295    2.9378   18.3415 Cl     57  UNL57      -0.1257
    450 C          13.7870    2.0561   18.3415 C.3    57  UNL57       0.0198
    451 C          12.6225    3.0239   18.3415 C.3    57  UNL57      -0.0517
    452 H          13.7624    1.4190   17.4529 H      57  UNL57       0.0427
    453 H          13.7624    1.4190   19.2300 H      57  UNL57       0.0427
    454 H          11.6756    2.4746   18.3415 H      57  UNL57       0.0241
    455 H          12.6398    3.6651   19.2290 H      57  UNL57       0.0241
    456 H          12.6398    3.6651   17.4542 H      57  UNL57       0.0241
    457 CL         19.4945    1.3134   -1.0112 Cl     58  UNL58      -0.1257
    458 C          17.9520    0.4317   -1.0112 C.3    58  UNL58       0.0198
    459 C          16.7875    1.3995   -1.0112 C.3    58  UNL58      -0.0517
    460 H          17.9274   -0.2054   -1.8998 H      58  UNL58       0.0427
    461 H          17.9274   -0.2054   -0.1227 H      58  UNL58       0.0427
    462 H          15.8406    0.8502   -1.0112 H      58  UNL58       0.0241
    463 H          16.8048    2.0407   -0.1238 H      58  UNL58       0.0241
    464 H          16.8048    2.0407   -1.8986 H      58  UNL58       0.0241
    465 CL         19.2831   -0.8285    1.5739 Cl     59  UNL59      -0.1257
    466 C          17.5235   -0.5825    1.5739 C.3    59  UNL59       0.0198
    467 C          17.1943    0.8954    1.5739 C.3    59  UNL59      -0.0517
    468 H          17.1143   -1.0715    0.6853 H      59  UNL59       0.0427
    469 H          17.1143   -1.0715    2.4624 H      59  UNL59       0.0427
    470 H          16.1092    1.0401    1.5739 H      59  UNL59       0.0241
    471 H          17.6001    1.3921    2.4613 H      59  UNL59       0.0241
    472 H          17.6001    1.3921    0.6865 H      59  UNL59       0.0241
    473 CL         19.4945    0.4423    4.3763 Cl     60  UNL60      -0.1257
    474 C          17.9520   -0.2552    3.8369 C.3    60  UNL60       0.0198
    475 C          16.7875    0.5105    4.4289 C.3    60  UNL60      -0.0517
    476 H          17.9274   -0.2156    2.7443 H      60  UNL60       0.0427
    477 H          17.9274   -1.3027    4.1501 H      60  UNL60       0.0427
    478 H          15.8406    0.0759    4.0929 H      60  UNL60       0.0241
    479 H          16.8048    0.4749    5.5232 H      60  UNL60       0.0241
    480 H          16.8048    1.5605    4.1191 H      60  UNL60       0.0241
    481 CL         19.4945    0.2861    6.9614 Cl     61  UNL61      -0.1257
    482 C          17.9520   -0.4114    6.4221 C.3    61  UNL61       0.0198
    483 C          16.7875    0.3542    7.0140 C.3    61  UNL61      -0.0517
    484 H          17.9274   -0.3719    5.3294 H      61  UNL61       0.0427
    485 H          17.9274   -1.4589    6.7353 H      61  UNL61       0.0427
    486 H          15.8406   -0.0803    6.6781 H      61  UNL61       0.0241
    487 H          16.8048    0.3187    8.1083 H      61  UNL61       0.0241
    488 H          16.8048    1.4043    6.7042 H      61  UNL61       0.0241
    489 CL         19.4945    0.1611    9.5465 Cl     62  UNL62      -0.1257
    490 C          17.9520   -0.5364    9.0072 C.3    62  UNL62       0.0198
    491 C          16.7875    0.2292    9.5992 C.3    62  UNL62      -0.0517
    492 H          17.9274   -0.4969    7.9145 H      62  UNL62       0.0427
    493 H          17.9274   -1.5839    9.3204 H      62  UNL62       0.0427
    494 H          15.8406   -0.2053    9.2632 H      62  UNL62       0.0241
    495 H          16.8048    0.1937   10.6934 H      62  UNL62       0.0241
    496 H          16.8048    1.2793    9.2894 H      62  UNL62       0.0241
    497 CL         19.4945    0.4226   12.2581 Cl     63  UNL63      -0.1257
    498 C          17.9520    0.2007   11.4048 C.3    63  UNL63       0.0198
    499 C          16.7875    0.4443   12.3414 C.3    63  UNL63      -0.0517
    500 H          17.9274    0.9003   10.5646 H      63  UNL63       0.0427
    501 H          17.9274   -0.8196   11.0118 H      63  UNL63       0.0427
    502 H          15.8406    0.3060   11.8098 H      63  UNL63       0.0241
    503 H          16.8048   -0.2532   13.1853 H      63  UNL63       0.0241
    504 H          16.8048    1.4645   12.7386 H      63  UNL63       0.0241
    505 CL         19.4945    0.0205   14.7792 Cl     64  UNL64      -0.1257
    506 C          17.9520   -0.6770   14.2399 C.3    64  UNL64       0.0198
    507 C          16.7875    0.0886   14.8319 C.3    64  UNL64      -0.0517
    508 H          17.9274   -0.6375   13.1472 H      64  UNL64       0.0427
    509 H          17.9274   -1.7245   14.5531 H      64  UNL64       0.0427
    510 H          15.8406   -0.3460   14.4959 H      64  UNL64       0.0241
    511 H          16.8048    0.0530   15.9261 H      64  UNL64       0.0241
    512 H          16.8048    1.1386   14.5221 H      64  UNL64       0.0241
    513 CL         19.4945    0.3330   17.2393 Cl     65  UNL65      -0.1257
    514 C          17.9520   -0.3645   16.7000 C.3    65  UNL65       0.0198
    515 C          16.7875    0.4011   17.2920 C.3    65  UNL65      -0.0517
    516 H          17.9274   -0.3250   15.6073 H      65  UNL65       0.0427
    517 H          17.9274   -1.4120   17.0132 H      65  UNL65       0.0427
    518 H          15.8406   -0.0335   16.9560 H      65  UNL65       0.0241
    519 H          16.8048    0.3655   18.3862 H      65  UNL65       0.0241
    520 H          16.8048    1.4511   16.9822 H      65  UNL65       0.0241
    521 CL         19.4945    0.0361   19.8870 Cl     66  UNL66      -0.1257
    522 C          17.9520   -0.6614   19.3476 C.3    66  UNL66       0.0198
    523 C          16.7875    0.1042   19.9396 C.3    66  UNL66      -0.0517
    524 H          17.9274   -0.6219   18.2550 H      66  UNL66       0.0427
    525 H          17.9274   -1.7089   19.6608 H      66  UNL66       0.0427
    526 H          15.8406   -0.3303   19.6036 H      66  UNL66       0.0241
    527 H          16.8048    0.0687   21.0339 H      66  UNL66       0.0241
    528 H          16.8048    1.1543   19.6298 H      66  UNL66       0.0241
    529 CL         19.4945    0.2236   22.4721 Cl     67  UNL67      -0.1257
    530 C          17.9520   -0.4739   21.9328 C.3    67  UNL67       0.0198
    531 C          16.7875    0.2917   22.5247 C.3    67  UNL67      -0.0517
    532 H          17.9274   -0.4344   20.8401 H      67  UNL67       0.0427
    533 H          17.9274   -1.5214   22.2459 H      67  UNL67       0.0427
    534 H          15.8406   -0.1428   22.1887 H      67  UNL67       0.0241
    535 H          16.8048    0.2562   23.6190 H      67  UNL67       0.0241
    536 H          16.8048    1.3418   22.2149 H      67  UNL67       0.0241
    537 CL         19.4945    0.3916   24.8399 Cl     68  UNL68      -0.1257
    538 C          17.9520   -0.4901   24.8399 C.3    68  UNL68       0.0198
    539 C          16.7875    0.4777   24.8399 C.3    68  UNL68      -0.0517
    540 H          17.9274   -1.1272   23.9513 H      68  UNL68       0.0427
    541 H          17.9274   -1.1272   25.7284 H      68  UNL68       0.0427
    542 H          15.8406   -0.0716   24.8399 H      68  UNL68       0.0241
    543 H          16.8048    1.1189   25.7273 H      68  UNL68       0.0241
    544 H          16.8048    1.1189   23.9525 H      68  UNL68       0.0241
    545 CL         19.4945    1.0947   27.4250 Cl     69  UNL69      -0.1257
    546 C          17.9520    0.2130   27.4250 C.3    69  UNL69       0.0198
    547 C          16.7875    1.1808   27.4250 C.3    69  UNL69      -0.0517
    548 H          17.9274   -0.4241   26.5364 H      69  UNL69       0.0427
    549 H          17.9274   -0.4241   28.3135 H      69  UNL69       0.0427
    550 H          15.8406    0.6315   27.4250 H      69  UNL69       0.0241
    551 H          16.8048    1.8220   28.3124 H      69  UNL69       0.0241
    552 H          16.8048    1.8220   26.5376 H      69  UNL69       0.0241
    553 CL         19.6195    3.0471   -1.0112 Cl     70  UNL70      -0.1257
    554 C          18.0770    2.1654   -1.0112 C.3    70  UNL70       0.0198
    555 C          16.9125    3.1332   -1.0112 C.3    70  UNL70      -0.0517
    556 H          18.0524    1.5283   -1.8998 H      70  UNL70       0.0427
    557 H          18.0524    1.5283   -0.1227 H      70  UNL70       0.0427
    558 H          15.9656    2.5839   -1.0112 H      70  UNL70       0.0241
    559 H          16.9298    3.7744   -0.1238 H      70  UNL70       0.0241
    560 H          16.9298    3.7744   -1.8986 H      70  UNL70       0.0241
    561 CL         19.5570    3.0628    4.1590 Cl     71  UNL71      -0.1257
    562 C          18.0145    2.1811    4.1590 C.3    71  UNL71       0.0198
    563 C          16.8500    3.1489    4.1590 C.3    71  UNL71      -0.0517
    564 H          17.9899    1.5440    3.2704 H      71  UNL71       0.0427
    565 H          17.9899    1.5440    5.0475 H      71  UNL71       0.0427
    566 H          15.9031    2.5996    4.1590 H      71  UNL71       0.0241
    567 H          16.8673    3.7901    5.0464 H      71  UNL71       0.0241
    568 H          16.8673    3.7901    3.2716 H      71  UNL71       0.0241
    569 CL         19.6195    3.2190    9.3292 Cl     72  UNL72      -0.1257
    570 C          18.0770    2.3373    9.3292 C.3    72  UNL72       0.0198
    571 C          16.9125    3.3051    9.3292 C.3    72  UNL72      -0.0517
    572 H          18.0524    1.7002    8.4406 H      72  UNL72       0.0427
    573 H          18.0524    1.7002   10.2177 H      72  UNL72       0.0427
    574 H          15.9656    2.7558    9.3292 H      72  UNL72       0.0241
    575 H          16.9298    3.9463   10.2166 H      72  UNL72       0.0241
    576 H          16.9298    3.9463    8.4418 H      72  UNL72       0.0241
    577 CL         19.6195    2.6878   14.4994 Cl     73  UNL73      -0.1257
    578 C          18.0770    1.8061   14.4994 C.3    73  UNL73       0.0198
    579 C          16.9125    2.7739   14.4994 C.3    73  UNL73      -0.0517
    580 H          18.0524    1.1690   13.6108 H      73  UNL73       0.0427
    581 H          18.0524    1.1690   15.3879 H      73  UNL73       0.0427
    582 H          15.9656    2.2246   14.4994 H      73  UNL73       0.0241
    583 H          16.9298    3.4151   15.3868 H      73  UNL73       0.0241
    584 H          16.9298    3.4151   13.6120 H      73  UNL73       0.0241
    585 CL         19.6195    2.6721   19.6697 Cl     74  UNL74      -0.1257
    586 C          18.0770    1.7904   19.6697 C.3    74  UNL74       0.0198
    587 C          16.9125    2.7582   19.6697 C.3    74  UNL74      -0.0517
    588 H          18.0524    1.1533   18.7811 H      74  UNL74       0.0427
    589 H          18.0524    1.1533   20.5582 H      74  UNL74       0.0427
    590 H          15.9656    2.2089   19.6697 H      74  UNL74       0.0241
    591 H          16.9298    3.3994   20.5571 H      74  UNL74       0.0241
    592 H          16.9298    3.3994   18.7823 H      74  UNL74       0.0241
    593 CL         19.5570    2.7503   24.8399 Cl     75  UNL75      -0.1257
    594 C          18.0145    1.8686   24.8399 C.3    75  UNL75       0.0198
    595 C          16.8500    2.8364   24.8399 C.3    75  UNL75      -0.0517
    596 H          17.9899    1.2315   23.9513 H      75  UNL75       0.0427
    597 H          17.9899    1.2315   25.7284 H      75  UNL75       0.0427
    598 H          15.9031    2.2871   24.8399 H      75  UNL75       0.0241
    599 H          16.8673    3.4776   25.7273 H      75  UNL75       0.0241
    600 H          16.8673    3.4776   23.9525 H      75  UNL75       0.0241
    601 CL         15.8589    2.3108   30.4188 Cl     76  UNL76      -0.1257
    602 C          17.5913    2.0950   30.0887 C.3    76  UNL76       0.0198
    603 C          17.8954    0.6451   29.7756 C.3    76  UNL76      -0.0517
    604 H          17.8569    2.7384   29.2451 H      76  UNL76       0.0427
    605 H          18.1468    2.4266   30.9705 H      76  UNL76       0.0427
    606 H          18.9638    0.5190   29.5732 H      76  UNL76       0.0241
    607 H          17.6327   -0.0056   30.6161 H      76  UNL76       0.0241
    608 H          17.3432    0.3059   28.8930 H      76  UNL76       0.0241
    609 CL         23.8470    1.7229    1.7912 Cl     77  UNL77      -0.1257
    610 C          22.3045    1.0254    1.2518 C.3    77  UNL77       0.0198
    611 C          21.1400    1.7910    1.8438 C.3    77  UNL77      -0.0517
    612 H          22.2799    1.0649    0.1592 H      77  UNL77       0.0427
    613 H          22.2799   -0.0221    1.5650 H      77  UNL77       0.0427
    614 H          20.1931    1.3565    1.5078 H      77  UNL77       0.0241
    615 H          21.1573    1.7555    2.9381 H      77  UNL77       0.0241
    616 H          21.1573    2.8411    1.5340 H      77  UNL77       0.0241
    617 CL         23.7845    1.7229    4.3763 Cl     78  UNL78      -0.1257
    618 C          22.2420    1.0254    3.8369 C.3    78  UNL78       0.0198
    619 C          21.0775    1.7910    4.4289 C.3    78  UNL78      -0.0517
    620 H          22.2174    1.0649    2.7443 H      78  UNL78       0.0427
    621 H          22.2174   -0.0221    4.1501 H      78  UNL78       0.0427
    622 H          20.1306    1.3565    4.0929 H      78  UNL78       0.0241
    623 H          21.0948    1.7555    5.5232 H      78  UNL78       0.0241
    624 H          21.0948    2.8411    4.1191 H      78  UNL78       0.0241
    625 CL         23.7845    1.7229    6.9614 Cl     79  UNL79      -0.1257
    626 C          22.2420    1.0254    6.4221 C.3    79  UNL79       0.0198
    627 C          21.0775    1.7910    7.0140 C.3    79  UNL79      -0.0517
    628 H          22.2174    1.0649    5.3294 H      79  UNL79       0.0427
    629 H          22.2174   -0.0221    6.7353 H      79  UNL79       0.0427
    630 H          20.1306    1.3565    6.6781 H      79  UNL79       0.0241
    631 H          21.0948    1.7555    8.1083 H      79  UNL79       0.0241
    632 H          21.0948    2.8411    6.7042 H      79  UNL79       0.0241
    633 CL         23.7845    1.7229    9.5465 Cl     80  UNL80      -0.1257
    634 C          22.2420    1.0254    9.0072 C.3    80  UNL80       0.0198
    635 C          21.0775    1.7910    9.5992 C.3    80  UNL80      -0.0517
    636 H          22.2174    1.0649    7.9145 H      80  UNL80       0.0427
    637 H          22.2174   -0.0221    9.3204 H      80  UNL80       0.0427
    638 H          20.1306    1.3565    9.2632 H      80  UNL80       0.0241
    639 H          21.0948    1.7555   10.6934 H      80  UNL80       0.0241
    640 H          21.0948    2.8411    9.2894 H      80  UNL80       0.0241
    641 CL         24.3470    1.7971   11.9143 Cl     81  UNL81      -0.1257
    642 C          22.8045    0.9154   11.9143 C.3    81  UNL81       0.0198
    643 C          21.6400    1.8832   11.9143 C.3    81  UNL81      -0.0517
    644 H          22.7799    0.2783   11.0257 H      81  UNL81       0.0427
    645 H          22.7799    0.2783   12.8028 H      81  UNL81       0.0427
    646 H          20.6931    1.3339   11.9143 H      81  UNL81       0.0241
    647 H          21.6573    2.5244   12.8017 H      81  UNL81       0.0241
    648 H          21.6573    2.5244   11.0269 H      81  UNL81       0.0241
    649 CL         23.7845    1.7229   14.7167 Cl     82  UNL82      -0.1257
    650 C          22.2420    1.0254   14.1774 C.3    82  UNL82       0.0198
    651 C          21.0775    1.7910   14.7694 C.3    82  UNL82      -0.0517
    652 H          22.2174    1.0649   13.0847 H      82  UNL82       0.0427
    653 H          22.2174   -0.0221   14.4906 H      82  UNL82       0.0427
    654 H          20.1306    1.3565   14.4334 H      82  UNL82       0.0241
    655 H          21.0948    1.7555   15.8636 H      82  UNL82       0.0241
    656 H          21.0948    2.8411   14.4596 H      82  UNL82       0.0241
    657 CL         23.7845    1.7229   17.3018 Cl     83  UNL83      -0.1257
    658 C          22.2420    1.0254   16.7625 C.3    83  UNL83       0.0198
    659 C          21.0775    1.7910   17.3545 C.3    83  UNL83      -0.0517
    660 H          22.2174    1.0649   15.6698 H      83  UNL83       0.0427
    661 H          22.2174   -0.0221   17.0757 H      83  UNL83       0.0427
    662 H          20.1306    1.3565   17.0185 H      83  UNL83       0.0241
    663 H          21.0948    1.7555   18.4487 H      83  UNL83       0.0241
    664 H          21.0948    2.8411   17.0447 H      83  UNL83       0.0241
    665 CL         23.7845    1.7229   19.8870 Cl     84  UNL84      -0.1257
    666 C          22.2420    1.0254   19.3476 C.3    84  UNL84       0.0198
    667 C          21.0775    1.7910   19.9396 C.3    84  UNL84      -0.0517
    668 H          22.2174    1.0649   18.2550 H      84  UNL84       0.0427
    669 H          22.2174   -0.0221   19.6608 H      84  UNL84       0.0427
    670 H          20.1306    1.3565   19.6036 H      84  UNL84       0.0241
    671 H          21.0948    1.7555   21.0339 H      84  UNL84       0.0241
    672 H          21.0948    2.8411   19.6298 H      84  UNL84       0.0241
    673 CL         23.7845    1.7229   22.4721 Cl     85  UNL85      -0.1257
    674 C          22.2420    1.0254   21.9328 C.3    85  UNL85       0.0198
    675 C          21.0775    1.7910   22.5247 C.3    85  UNL85      -0.0517
    676 H          22.2174    1.0649   20.8401 H      85  UNL85       0.0427
    677 H          22.2174   -0.0221   22.2459 H      85  UNL85       0.0427
    678 H          20.1306    1.3565   22.1887 H      85  UNL85       0.0241
    679 H          21.0948    1.7555   23.6190 H      85  UNL85       0.0241
    680 H          21.0948    2.8411   22.2149 H      85  UNL85       0.0241
    681 CL         23.7845    1.7971   24.8399 Cl     86  UNL86      -0.1257
    682 C          22.2420    0.9154   24.8399 C.3    86  UNL86       0.0198
    683 C          21.0775    1.8832   24.8399 C.3    86  UNL86      -0.0517
    684 H          22.2174    0.2783   23.9513 H      86  UNL86       0.0427
    685 H          22.2174    0.2783   25.7284 H      86  UNL86       0.0427
    686 H          20.1306    1.3339   24.8399 H      86  UNL86       0.0241
    687 H          21.0948    2.5244   25.7273 H      86  UNL86       0.0241
    688 H          21.0948    2.5244   23.9525 H      86  UNL86       0.0241
    689 CL         23.1386    2.9782   27.4250 Cl     87  UNL87      -0.1257
    690 C          22.4576    1.3372   27.4250 C.3    87  UNL87       0.0198
    691 C          20.9444    1.3905   27.4250 C.3    87  UNL87      -0.0517
    692 H          22.8279    0.8181   26.5364 H      87  UNL87       0.0427
    693 H          22.8279    0.8181   28.3135 H      87  UNL87       0.0427
    694 H          20.5313    0.3767   27.4250 H      87  UNL87       0.0241
    695 H          20.5659    1.9083   28.3124 H      87  UNL87       0.0241
    696 H          20.5659    1.9083   26.5376 H      87  UNL87       0.0241
    697 CL         21.9252    1.7971   31.1039 Cl     88  UNL88      -0.1257
    698 C          20.3827    0.9154   31.1039 C.3    88  UNL88       0.0198
    699 C          19.2182    1.8832   31.1039 C.3    88  UNL88      -0.0517
    700 H          20.3581    0.2783   30.2153 H      88  UNL88       0.0427
    701 H          20.3581    0.2783   31.9924 H      88  UNL88       0.0427
    702 H          18.2713    1.3339   31.1039 H      88  UNL88       0.0241
    703 H          19.2355    2.5244   31.9913 H      88  UNL88       0.0241
    704 H          19.2355    2.5244   30.2165 H      88  UNL88       0.0241
@<TRIPOS>BOND
     1     1     2    1
     2     2     3    1
     3     2     4    1
     4     2     5    1
     5     3     6    1
     6     3     7    1
     7     3     8    1
     8     9    10    1
     9    10    11    1
    10    10    12    1
    11    10    13    1
    12    11    14    1
    13    11    15    1
    14    11    16    1
    15    17    18    1
    16    18    19    1
    17    18    20    1
    18    18    21    1
    19    19    22    1
    20    19    23    1
    21    19    24    1
    22    25    26    1
    23    26    27    1
    24    26    28    1
    25    26    29    1
    26    27    30    1
    27    27    31    1
    28    27    32    1
    29    33    34    1
    30    34    35    1
    31    34    36    1
    32    34    37    1
    33    35    38    1
    34    35    39    1
    35    35    40    1
    36    41    42    1
    37    42    43    1
    38    42    44    1
    39    42    45    1
    40    43    46    1
    41    43    47    1
    42    43    48    1
    43    49    50    1
    44    50    51    1
    45    50    52    1
    46    50    53    1
    47    51    54    1
    48    51    55    1
    49    51    56    1
    50    57    58    1
    51    58    59    1
    52    58    60    1
    53    58    61    1
    54    59    62    1
    55    59    63    1
    56    59    64    1
    57    65    66    1
    58    66    67    1
    59    66    68    1
    60    66    69    1
    61    67    70    1
    62    67    71    1
    63    67    72    1
    64    73    74    1
    65    74    75    1
    66    74    76    1
    67    74    77    1
    68    75    78    1
    69    75    79    1
    70    75    80    1
    71    81    82    1
    72    82    83    1
    73    82    84    1
    74    82    85    1
    75    83    86    1
    76    83    87    1
    77    83    88    1
    78    89    90    1
    79    90    91    1
    80    90    92    1
    81    90    93    1
    82    91    94    1
    83    91    95    1
    84    91    96    1
    85    97    98    1
    86    98    99    1
    87    98   100    1
    88    98   101    1
    89    99   102    1
    90    99   103    1
    91    99   104    1
    92   105   106    1
    93   106   107    1
    94   106   108    1
    95   106   109    1
    96   107   110    1
    97   107   111    1
    98   107   112    1
    99   113   114    1
   100   114   115    1
   101   114   116    1
   102   114   117    1
   103   115   118    1
   104   115   119    1
   105   115   120    1
   106   121   122    1
   107   122   123    1
   108   122   124    1
   109   122   125    1
   110   123   126    1
   111   123   127    1
   112   123   128    1
   113   129   130    1
   114   130   131    1
   115   130   132    1
   116   130   133    1
   117   131   134    1
   118   131   135    1
   119   131   136    1
   120   137   138    1
   121   138   139    1
   122   138   140    1
   123   138   141    1
   124   139   142    1
   125   139   143    1
   126   139   144    1
   127   145   146    1
   128   146   147    1
   129   146   148    1
   130   146   149    1
   131   147   150    1
   132   147   151    1
   133   147   152    1
   134   153   154    1
   135   154   155    1
   136   154   156    1
   137   154   157    1
   138   155   158    1
   139   155   159    1
   140   155   160    1
   141   161   162    1
   142   162   163    1
   143   162   164    1
   144   162   165    1
   145   163   166    1
   146   163   167    1
   147   163   168    1
   148   169   170    1
   149   170   171    1
   150   170   172    1
   151   170   173    1
   152   171   174    1
   153   171   175    1
   154   171   176    1
   155   177   178    1
   156   178   179    1
   157   178   180    1
   158   178   181    1
   159   179   182    1
   160   179   183    1
   161   179   184    1
   162   185   186    1
   163   186   187    1
   164   186   188    1
   165   186   189    1
   166   187   190    1
   167   187   191    1
   168   187   192    1
   169   193   194    1
   170   194   195    1
   171   194   196    1
   172   194   197    1
   173   195   198    1
   174   195   199    1
   175   195   200    1
   176   201   202    1
   177   202   203    1
   178   202   204    1
   179   202   205    1
   180   203   206    1
   181   203   207    1
   182   203   208    1
   183   209   210    1
   184   210   211    1
   185   210   212    1
   186   210   213    1
   187   211   214    1
   188   211   215    1
   189   211   216    1
   190   217   218    1
   191   218   219    1
   192   218   220    1
   193   218   221    1
   194   219   222    1
   195   219   223    1
   196   219   224    1
   197   225   226    1
   198   226   227    1
   199   226   228    1
   200   226   229    1
   201   227   230    1
   202   227   231    1
   203   227   232    1
   204   233   234    1
   205   234   235    1
   206   234   236    1
   207   234   237    1
   208   235   238    1
   209   235   239    1
   210   235   240    1
   211   241   242    1
   212   242   243    1
   213   242   244    1
   214   242   245    1
   215   243   246    1
   216   243   247    1
   217   243   248    1
   218   249   250    1
   219   250   251    1
   220   250   252    1
   221   250   253    1
   222   251   254    1
   223   251   255    1
   224   251   256    1
   225   257   258    1
   226   258   259    1
   227   258   260    1
   228   258   261    1
   229   259   262    1
   230   259   263    1
   231   259   264    1
   232   265   266    1
   233   266   267    1
   234   266   268    1
   235   266   269    1
   236   267   270    1
   237   267   271    1
   238   267   272    1
   239   273   274    1
   240   274   275    1
   241   274   276    1
   242   274   277    1
   243   275   278    1
   244   275   279    1
   245   275   280    1
   246   281   282    1
   247   282   283    1
   248   282   284    1
   249   282   285    1
   250   283   286    1
   251   283   287    1
   252   283   288    1
   253   289   290    1
   254   290   291    1
   255   290   292    1
   256   290   293    1
   257   291   294    1
   258   291   295    1
   259   291   296    1
   260   297   298    1
   261   298   299    1
   262   298   300    1
   263   298   301    1
   264   299   302    1
   265   299   303    1
   266   299   304    1
   267   305   306    1
   268   306   307    1
   269   306   308    1
   270   306   309    1
   271   307   310    1
   272   307   311    1
   273   307   312    1
   274   313   314    1
   275   314   315    1
   276   314   316    1
   277   314   317    1
   278   315   318    1
   279   315   319    1
   280   315   320    1
   281   321   322    1
   282   322   323    1
   283   322   324    1
   284   322   325    1
   285   323   326    1
   286   323   327    1
   287   323   328    1
   288   329   330    1
   289   330   331    1
   290   330   332    1
   291   330   333    1
   292   331   334    1
   293   331   335    1
   294   331   336    1
   295   337   338    1
   296   338   339    1
   297   338   340    1
   298   338   341    1
   299   339   342    1
   300   339   343    1
   301   339   344    1
   302   345   346    1
   303   346   347    1
   304   346   348    1
   305   346   349    1
   306   347   350    1
   307   347   351    1
   308   347   352    1
   309   353   354    1
   310   354   355    1
   311   354   356    1
   312   354   357    1
   313   355   358    1
   314   355   359    1
   315   355   360    1
   316   361   362    1
   317   362   363    1
   318   362   364    1
   319   362   365    1
   320   363   366    1
   321   363   367    1
   322   363   368    1
   323   369   370    1
   324   370   371    1
   325   370   372    1
   326   370   373    1
   327   371   374    1
   328   371   375    1
   329   371   376    1
   330   377   378    1
   331   378   379    1
   332   378   380    1
   333   378   381    1
   334   379   382    1
   335   379   383    1
   336   379   384    1
   337   385   386    1
   338   386   387    1
   339   386   388    1
   340   386   389    1
   341   387   390    1
   342   387   391    1
   343   387   392    1
   344   393   394    1
   345   394   395    1
   346   394   396    1
   347   394   397    1
   348   395   398    1
   349   395   399    1
   350   395   400    1
   351   401   402    1
   352   402   403    1
   353   402   404    1
   354   402   405    1
   355   403   406    1
   356   403   407    1
   357   403   408    1
   358   409   410    1
   359   410   411    1
   360   410   412    1
   361   410   413    1
   362   411   414    1
   363   411   415    1
   364   411   416    1
   365   417   418    1
   366   418   419    1
   367   418   420    1
   368   418   421    1
   369   419   422    1
   370   419   423    1
   371   419   424    1
   372   425   426    1
   373   426   427    1
   374   426   428    1
   375   426   429    1
   376   427   430    1
   377   427   431    1
   378   427   432    1
   379   433   434    1
   380   434   435    1
   381   434   436    1
   382   434   437    1
   383   435   438    1
   384   435   439    1
   385   435   440    1
   386   441   442    1
   387   442   443    1
   388   442   444    1
   389   442   445    1
   390   443   446    1
   391   443   447    1
   392   443   448    1
   393   449   450    1
   394   450   451    1
   395   450   452    1
   396   450   453    1
   397   451   454    1
   398   451   455    1
   399   451   456    1
   400   457   458    1
   401   458   459    1
   402   458   460    1
   403   458   461    1
   404   459   462    1
   405   459   463    1
   406   459   464    1
   407   465   466    1
   408   466   467    1
   409   466   468    1
   410   466   469    1
   411   467   470    1
   412   467   471    1
   413   467   472    1
   414   473   474    1
   415   474   475    1
   416   474   476    1
   417   474   477    1
   418   475   478    1
   419   475   479    1
   420   475   480    1
   421   481   482    1
   422   482   483    1
   423   482   484    1
   424   482   485    1
   425   483   486    1
   426   483   487    1
   427   483   488    1
   428   489   490    1
   429   490   491    1
   430   490   492    1
   431   490   493    1
   432   491   494    1
   433   491   495    1
   434   491   496    1
   435   497   498    1
   436   498   499    1
   437   498   500    1
   438   498   501    1
   439   499   502    1
   440   499   503    1
   441   499   504    1
   442   505   506    1
   443   506   507    1
   444   506   508    1
   445   506   509    1
   446   507   510    1
   447   507   511    1
   448   507   512    1
   449   513   514    1
   450   514   515    1
   451   514   516    1
   452   514   517    1
   453   515   518    1
   454   515   519    1
   455   515   520    1
   456   521   522    1
   457   522   523    1
   458   522   524    1
   459   522   525    1
   460   523   526    1
   461   523   527    1
   462   523   528    1
   463   529   530    1
   464   530   531    1
   465   530   532    1
   466   530   533    1
   467   531   534    1
   468   531   535    1
   469   531   536    1
   470   537   538    1
   471   538   539    1
   472   538   540    1
   473   538   541    1
   474   539   542    1
   475   539   543    1
   476   539   544    1
   477   545   546    1
   478   546   547    1
   479   546   548    1
   480   546   549    1
   481   547   550    1
   482   547   551    1
   483   547   552    1
   484   553   554    1
   485   554   555    1
   486   554   556    1
   487   554   557    1
   488   555   558    1
   489   555   559    1
   490   555   560    1
   491   561   562    1
   492   562   563    1
   493   562   564    1
   494   562   565    1
   495   563   566    1
   496   563   567    1
   497   563   568    1
   498   569   570    1
   499   570   571    1
   500   570   572    1
   501   570   573    1
   502   571   574    1
   503   571   575    1
   504   571   576    1
   505   577   578    1
   506   578   579    1
   507   578   580    1
   508   578   581    1
   509   579   582    1
   510   579   583    1
   511   579   584    1
   512   585   586    1
   513   586   587    1
   514   586   588    1
   515   586   589    1
   516   587   590    1
   517   587   591    1
   518   587   592    1
   519   593   594    1
   520   594   595    1
   521   594   596    1
   522   594   597    1
   523   595   598    1
   524   595   599    1
   525   595   600    1
   526   601   602    1
   527   602   603    1
   528   602   604    1
   529   602   605    1
   530   603   606    1
   531   603   607    1
   532   603   608    1
   533   609   610    1
   534   610   611    1
   535   610   612    1
   536   610   613    1
   537   611   614    1
   538   611   615    1
   539   611   616    1
   540   617   618    1
   541   618   619    1
   542   618   620    1
   543   618   621    1
   544   619   622    1
   545   619   623    1
   546   619   624    1
   547   625   626    1
   548   626   627    1
   549   626   628    1
   550   626   629    1
   551   627   630    1
   552   627   631    1
   553   627   632    1
   554   633   634    1
   555   634   635    1
   556   634   636    1
   557   634   637    1
   558   635   638    1
   559   635   639    1
   560   635   640    1
   561   641   642    1
   562   642   643    1
   563   642   644    1
   564   642   645    1
   565   643   646    1
   566   643   647    1
   567   643   648    1
   568   649   650    1
   569   650   651    1
   570   650   652    1
   571   650   653    1
   572   651   654    1
   573   651   655    1
   574   651   656    1
   575   657   658    1
   576   658   659    1
   577   658   660    1
   578   658   661    1
   579   659   662    1
   580   659   663    1
   581   659   664    1
   582   665   666    1
   583   666   667    1
   584   666   668    1
   585   666   669    1
   586   667   670    1
   587   667   671    1
   588   667   672    1
   589   673   674    1
   590   674   675    1
   591   674   676    1
   592   674   677    1
   593   675   678    1
   594   675   679    1
   595   675   680    1
   596   681   682    1
   597   682   683    1
   598   682   684    1
   599   682   685    1
   600   683   686    1
   601   683   687    1
   602   683   688    1
   603   689   690    1
   604   690   691    1
   605   690   692    1
   606   690   693    1
   607   691   694    1
   608   691   695    1
   609   691   696    1
   610   697   698    1
   611   698   699    1
   612   698   700    1
   613   698   701    1
   614   699   702    1
   615   699   703    1
   616   699   704    1
