@<TRIPOS>MOLECULE
*****
 6352 5558 0 0 0
SMALL
GASTEIGER

@<TRIPOS>ATOM
      1 CL         -2.3977    1.9747    0.8550 Cl      1  UNL1       -0.1257
      2 C          -1.0506    1.7368    1.9888 C.3     1  UNL1        0.0198
      3 C          -0.0337    2.8495    1.8456 C.3     1  UNL1       -0.0517
      4 H          -1.4620    1.7148    3.0019 H       1  UNL1        0.0427
      5 H          -0.5963    0.7655    1.7741 H       1  UNL1        0.0427
      6 H           0.7933    2.6971    2.5465 H       1  UNL1        0.0241
      7 H           0.3835    2.8775    0.8336 H       1  UNL1        0.0241
      8 H          -0.4811    3.8256    2.0598 H       1  UNL1        0.0241
      9 CL          1.9465    2.2737    3.8276 Cl      2  UNL2       -0.1257
     10 C           0.4040    1.5762    4.3669 C.3     2  UNL2        0.0198
     11 C          -0.7605    2.3418    3.7749 C.3     2  UNL2       -0.0517
     12 H           0.3794    0.5286    4.0536 H       2  UNL2        0.0427
     13 H           0.3794    1.6157    5.4595 H       2  UNL2        0.0427
     14 H          -1.7074    1.9073    4.1109 H       2  UNL2        0.0241
     15 H          -0.7432    3.3919    4.0847 H       2  UNL2        0.0241
     16 H          -0.7432    2.3063    2.6807 H       2  UNL2        0.0241
     17 CL          1.8929    2.0979    8.4818 Cl      3  UNL3       -0.1257
     18 C           0.6726    1.2162    7.5383 C.3     3  UNL3        0.0198
     19 C          -0.2487    2.1840    6.8260 C.3     3  UNL3       -0.0517
     20 H           1.1967    0.5791    6.8202 H       3  UNL3        0.0427
     21 H           0.1096    0.5791    8.2261 H       3  UNL3        0.0427
     22 H          -0.9978    1.6347    6.2468 H       3  UNL3        0.0241
     23 H          -0.7778    2.8252    7.5386 H       3  UNL3        0.0241
     24 H           0.3078    2.8252    6.1345 H       3  UNL3        0.0241
     25 CL          1.6429    2.3479   11.6635 Cl      4  UNL4       -0.1257
     26 C           0.4226    1.4662   10.7199 C.3     4  UNL4        0.0198
     27 C          -0.4987    2.4340   10.0076 C.3     4  UNL4       -0.0517
     28 H           0.9467    0.8291   10.0019 H       4  UNL4        0.0427
     29 H          -0.1404    0.8291   11.4078 H       4  UNL4        0.0427
     30 H          -1.2478    1.8847    9.4284 H       4  UNL4        0.0241
     31 H          -1.0278    3.0752   10.7202 H       4  UNL4        0.0241
     32 H           0.0578    3.0752    9.3162 H       4  UNL4        0.0241
     33 CL          2.0090    1.9729   14.3399 Cl      5  UNL5       -0.1257
     34 C           0.4665    1.0912   14.3399 C.3     5  UNL5        0.0198
     35 C          -0.6980    2.0590   14.3399 C.3     5  UNL5       -0.0517
     36 H           0.4419    0.4541   13.4513 H       5  UNL5        0.0427
     37 H           0.4419    0.4541   15.2284 H       5  UNL5        0.0427
     38 H          -1.6449    1.5097   14.3399 H       5  UNL5        0.0241
     39 H          -0.6807    2.7002   15.2273 H       5  UNL5        0.0241
     40 H          -0.6807    2.7002   13.4525 H       5  UNL5        0.0241
     41 CL          1.4256    2.1919   16.0348 Cl      6  UNL6       -0.1257
     42 C           0.7446    1.7788   17.6230 C.3     6  UNL6        0.0198
     43 C          -0.7686    1.7922   17.5714 C.3     6  UNL6       -0.0517
     44 H           1.1149    0.7882   17.9017 H       6  UNL6        0.0427
     45 H           1.1149    2.5081   18.3489 H       6  UNL6        0.0427
     46 H          -1.1817    1.5371   18.5525 H       6  UNL6        0.0241
     47 H          -1.1471    2.7814   17.2935 H       6  UNL6        0.0241
     48 H          -1.1471    1.0638   16.8468 H       6  UNL6        0.0241
     49 CL          1.6965    2.3479   20.4533 Cl      7  UNL7       -0.1257
     50 C           0.1540    1.4662   20.4533 C.3     7  UNL7        0.0198
     51 C          -1.0105    2.4340   20.4533 C.3     7  UNL7       -0.0517
     52 H           0.1294    0.8291   19.5647 H       7  UNL7        0.0427
     53 H           0.1294    0.8291   21.3418 H       7  UNL7        0.0427
     54 H          -1.9574    1.8847   20.4533 H       7  UNL7        0.0241
     55 H          -0.9932    3.0752   21.3407 H       7  UNL7        0.0241
     56 H          -0.9932    3.0752   19.5659 H       7  UNL7        0.0241
     57 CL          1.1120    3.1643   24.7183 Cl      8  UNL8       -0.1257
     58 C           0.3123    1.6643   24.2014 C.3     8  UNL8        0.0198
     59 C          -0.5984    1.9280   23.0208 C.3     8  UNL8       -0.0517
     60 H           1.0893    0.9409   23.9385 H       8  UNL8        0.0427
     61 H          -0.2560    1.2748   25.0507 H       8  UNL8        0.0427
     62 H          -1.0878    1.0003   22.7074 H       8  UNL8        0.0241
     63 H          -1.3798    2.6512   23.2765 H       8  UNL8        0.0241
     64 H          -0.0363    2.3177   22.1657 H       8  UNL8        0.0241
     65 CL          0.1921    3.6932   27.0666 Cl      9  UNL9       -0.1257
     66 C           0.6572    1.9784   27.0666 C.3     9  UNL9        0.0198
     67 C          -0.5725    1.0950   27.0666 C.3     9  UNL9       -0.0517
     68 H           1.2676    1.7942   26.1780 H       9  UNL9        0.0427
     69 H           1.2676    1.7942   27.9551 H       9  UNL9        0.0427
     70 H          -0.2792    0.0403   27.0666 H       9  UNL9        0.0241
     71 H          -1.1887    1.2731   27.9540 H       9  UNL9        0.0241
     72 H          -1.1887    1.2731   26.1792 H       9  UNL9        0.0241
     73 CL          2.0715    2.1604   30.2483 Cl     10  UNL10      -0.1257
     74 C           0.5290    1.2787   30.2483 C.3    10  UNL10       0.0198
     75 C          -0.6355    2.2465   30.2483 C.3    10  UNL10      -0.0517
     76 H           0.5044    0.6416   29.3597 H      10  UNL10       0.0427
     77 H           0.5044    0.6416   31.1368 H      10  UNL10       0.0427
     78 H          -1.5824    1.6972   30.2483 H      10  UNL10       0.0241
     79 H          -0.6182    2.8877   31.1357 H      10  UNL10       0.0241
     80 H          -0.6182    2.8877   29.3609 H      10  UNL10       0.0241
     81 CL          1.6965    2.2229   33.4300 Cl     11  UNL11      -0.1257
     82 C           0.1540    1.3412   33.4300 C.3    11  UNL11       0.0198
     83 C          -1.0105    2.3090   33.4300 C.3    11  UNL11      -0.0517
     84 H           0.1294    0.7041   32.5414 H      11  UNL11       0.0427
     85 H           0.1294    0.7041   34.3185 H      11  UNL11       0.0427
     86 H          -1.9574    1.7597   33.4300 H      11  UNL11       0.0241
     87 H          -0.9932    2.9502   34.3174 H      11  UNL11       0.0241
     88 H          -0.9932    2.9502   32.5426 H      11  UNL11       0.0241
     89 CL          2.0715    6.0298    0.2440 Cl     12  UNL12      -0.1257
     90 C           0.5290    5.1481    0.2440 C.3    12  UNL12       0.0198
     91 C          -0.6355    6.1159    0.2440 C.3    12  UNL12      -0.0517
     92 H           0.5044    4.5110   -0.6446 H      12  UNL12       0.0427
     93 H           0.5044    4.5110    1.1325 H      12  UNL12       0.0427
     94 H          -1.5824    5.5666    0.2440 H      12  UNL12       0.0241
     95 H          -0.6182    6.7571    1.1314 H      12  UNL12       0.0241
     96 H          -0.6182    6.7571   -0.6434 H      12  UNL12       0.0241
     97 CL          1.4979    6.5863    6.6074 Cl     13  UNL13      -0.1257
     98 C           0.4495    5.1519    6.6074 C.3    13  UNL13       0.0198
     99 C          -1.0085    5.5602    6.6074 C.3    13  UNL13      -0.0517
    100 H           0.6871    4.5602    5.7188 H      13  UNL13       0.0427
    101 H           0.6871    4.5602    7.4959 H      13  UNL13       0.0427
    102 H          -1.6488    4.6723    6.6074 H      13  UNL13       0.0241
    103 H          -1.2544    6.1527    7.4948 H      13  UNL13       0.0241
    104 H          -1.2544    6.1527    5.7200 H      13  UNL13       0.0241
    105 CL          1.4256    5.6862    8.4272 Cl     14  UNL14      -0.1257
    106 C           0.7446    5.2732   10.0154 C.3    14  UNL14       0.0198
    107 C          -0.7686    5.2866    9.9638 C.3    14  UNL14      -0.0517
    108 H           1.1149    4.2826   10.2941 H      14  UNL14       0.0427
    109 H           1.1149    6.0025   10.7414 H      14  UNL14       0.0427
    110 H          -1.1817    5.0315   10.9449 H      14  UNL14       0.0241
    111 H          -1.1471    6.2758    9.6860 H      14  UNL14       0.0241
    112 H          -1.1471    4.5581    9.2393 H      14  UNL14       0.0241
    113 CL          1.1229    6.8363   13.2207 Cl     15  UNL15      -0.1257
    114 C           0.0745    5.4019   13.2207 C.3    15  UNL15       0.0198
    115 C          -1.3835    5.8102   13.2207 C.3    15  UNL15      -0.0517
    116 H           0.3121    4.8102   12.3321 H      15  UNL15       0.0427
    117 H           0.3121    4.8102   14.1092 H      15  UNL15       0.0427
    118 H          -2.0238    4.9223   13.2207 H      15  UNL15       0.0241
    119 H          -1.6294    6.4027   14.1081 H      15  UNL15       0.0241
    120 H          -1.6294    6.4027   12.3333 H      15  UNL15       0.0241
    121 CL          0.6340    5.6239   16.3199 Cl     16  UNL16      -0.1257
    122 C          -0.9085    4.8189   16.6797 C.3    16  UNL16       0.0198
    123 C          -2.0730    5.7025   16.2848 C.3    16  UNL16      -0.0517
    124 H          -0.9331    3.8747   16.1285 H      16  UNL16       0.0427
    125 H          -0.9331    4.5999   17.7509 H      16  UNL16       0.0427
    126 H          -3.0199    5.2010   16.5090 H      16  UNL16       0.0241
    127 H          -2.0557    6.6500   16.8333 H      16  UNL16       0.0241
    128 H          -2.0557    5.9257   15.2130 H      16  UNL16       0.0241
    129 CL          1.4256    6.9608   19.5841 Cl     17  UNL17      -0.1257
    130 C           0.7446    5.3198   19.5841 C.3    17  UNL17       0.0198
    131 C          -0.7686    5.3731   19.5841 C.3    17  UNL17      -0.0517
    132 H           1.1149    4.8007   18.6955 H      17  UNL17       0.0427
    133 H           1.1149    4.8007   20.4726 H      17  UNL17       0.0427
    134 H          -1.1817    4.3594   19.5841 H      17  UNL17       0.0241
    135 H          -1.1471    5.8910   20.4715 H      17  UNL17       0.0241
    136 H          -1.1471    5.8910   18.6967 H      17  UNL17       0.0241
    137 CL          0.4037    4.5509   22.6607 Cl     18  UNL18      -0.1257
    138 C          -1.3089    4.8576   22.3009 C.3    18  UNL18       0.0198
    139 C          -1.6897    6.2689   22.6959 C.3    18  UNL18      -0.0517
    140 H          -1.4623    4.6994   21.2297 H      18  UNL18       0.0427
    141 H          -1.9059    4.1257   22.8521 H      18  UNL18       0.0427
    142 H          -2.7455    6.4514   22.4717 H      18  UNL18       0.0241
    143 H          -1.5395    6.4349   23.7677 H      18  UNL18       0.0241
    144 H          -1.0964    7.0079   22.1474 H      18  UNL18       0.0241
    145 CL         -1.6717    4.0808   26.1437 Cl     19  UNL19      -0.1257
    146 C          -0.8404    5.4758   25.4230 C.3    19  UNL19       0.0198
    147 C           0.4567    5.7557   26.1524 C.3    19  UNL19      -0.0517
    148 H          -0.6525    5.2495   24.3696 H      19  UNL19       0.0427
    149 H          -1.5125    6.3365   25.4818 H      19  UNL19       0.0427
    150 H           0.9637    6.6159   25.7036 H      19  UNL19       0.0241
    151 H           0.2767    5.9840   27.2080 H      19  UNL19       0.0241
    152 H           1.1355    4.8983   26.0973 H      19  UNL19       0.0241
    153 CL          0.6340    5.2120   29.5387 Cl     20  UNL20      -0.1257
    154 C          -0.9085    5.7396   28.8323 C.3    20  UNL20       0.0198
    155 C          -2.0730    5.1604   29.6077 C.3    20  UNL20      -0.0517
    156 H          -0.9331    6.8328   28.8537 H      20  UNL20       0.0427
    157 H          -0.9331    5.4091   27.7902 H      20  UNL20       0.0427
    158 H          -3.0199    5.4892   29.1676 H      20  UNL20       0.0241
    159 H          -2.0557    4.0658   29.5903 H      20  UNL20       0.0241
    160 H          -2.0557    5.4877   30.6524 H      20  UNL20       0.0241
    161 CL          1.9465    5.7798   32.2483 Cl     21  UNL21      -0.1257
    162 C           0.4040    4.8981   32.2483 C.3    21  UNL21       0.0198
    163 C          -0.7605    5.8659   32.2483 C.3    21  UNL21      -0.0517
    164 H           0.3794    4.2610   31.3597 H      21  UNL21       0.0427
    165 H           0.3794    4.2610   33.1368 H      21  UNL21       0.0427
    166 H          -1.7074    5.3166   32.2483 H      21  UNL21       0.0241
    167 H          -0.7432    6.5071   33.1357 H      21  UNL21       0.0241
    168 H          -0.7432    6.5071   31.3609 H      21  UNL21       0.0241
    169 CL          1.4256    9.2431    2.1058 Cl     22  UNL22      -0.1257
    170 C           0.7446    8.8301    0.5176 C.3    22  UNL22       0.0198
    171 C          -0.7686    8.8435    0.5692 C.3    22  UNL22      -0.0517
    172 H           1.1149    9.5594   -0.2084 H      22  UNL22       0.0427
    173 H           1.1149    7.8395    0.2389 H      22  UNL22       0.0427
    174 H          -1.1817    8.5883   -0.4119 H      22  UNL22       0.0241
    175 H          -1.1471    8.1150    1.2937 H      22  UNL22       0.0241
    176 H          -1.1471    9.8327    0.8470 H      22  UNL22       0.0241
    177 CL          1.6965    9.3992    3.5507 Cl     23  UNL23      -0.1257
    178 C           0.1540    8.5175    3.5507 C.3    23  UNL23       0.0198
    179 C          -1.0105    9.4853    3.5507 C.3    23  UNL23      -0.0517
    180 H           0.1294    7.8804    2.6621 H      23  UNL23       0.0427
    181 H           0.1294    7.8804    4.4392 H      23  UNL23       0.0427
    182 H          -1.9574    8.9360    3.5507 H      23  UNL23       0.0241
    183 H          -0.9932   10.1265    4.4381 H      23  UNL23       0.0241
    184 H          -0.9932   10.1265    2.6633 H      23  UNL23       0.0241
    185 CL          1.3006   10.3927    6.6074 Cl     24  UNL24      -0.1257
    186 C           0.6196    8.7517    6.6074 C.3    24  UNL24       0.0198
    187 C          -0.8936    8.8050    6.6074 C.3    24  UNL24      -0.0517
    188 H           0.9899    8.2326    5.7188 H      24  UNL24       0.0427
    189 H           0.9899    8.2326    7.4959 H      24  UNL24       0.0427
    190 H          -1.3067    7.7913    6.6074 H      24  UNL24       0.0241
    191 H          -1.2721    9.3228    7.4948 H      24  UNL24       0.0241
    192 H          -1.2721    9.3228    5.7200 H      24  UNL24       0.0241
    193 CL         -1.0491    7.6376    8.7784 Cl     25  UNL25      -0.1257
    194 C          -0.8324    9.0327    9.8570 C.3    25  UNL25       0.0198
    195 C           0.6399    9.3126   10.0734 C.3    25  UNL25      -0.0517
    196 H          -1.3280    9.8935    9.3993 H      25  UNL25       0.0427
    197 H          -1.3280    8.8064   10.8052 H      25  UNL25       0.0427
    198 H           0.7665   10.1728   10.7385 H      25  UNL25       0.0241
    199 H           1.1433    8.4552   10.5322 H      25  UNL25       0.0241
    200 H           1.1433    9.5408    9.1282 H      25  UNL25       0.0241
    201 CL          1.3006   10.3927   13.1582 Cl     26  UNL26      -0.1257
    202 C           0.6196    8.7517   13.1582 C.3    26  UNL26       0.0198
    203 C          -0.8936    8.8050   13.1582 C.3    26  UNL26      -0.0517
    204 H           0.9899    8.2326   12.2696 H      26  UNL26       0.0427
    205 H           0.9899    8.2326   14.0467 H      26  UNL26       0.0427
    206 H          -1.3067    7.7913   13.1582 H      26  UNL26       0.0241
    207 H          -1.2721    9.3228   14.0456 H      26  UNL26       0.0241
    208 H          -1.2721    9.3228   12.2708 H      26  UNL26       0.0241
    209 CL          0.5047    7.1473   16.3399 Cl     27  UNL27      -0.1257
    210 C          -0.7368    8.4182   16.3399 C.3    27  UNL27       0.0198
    211 C          -0.0933    9.7888   16.3399 C.3    27  UNL27      -0.0517
    212 H          -1.3596    8.2817   15.4513 H      27  UNL27       0.0427
    213 H          -1.3596    8.2817   17.2284 H      27  UNL27       0.0427
    214 H          -0.8632   10.5670   16.3399 H      27  UNL27       0.0241
    215 H           0.5316    9.9335   17.2273 H      27  UNL27       0.0241
    216 H           0.5316    9.9335   15.4525 H      27  UNL27       0.0241
    217 CL         -1.8616    7.1248   19.5841 Cl     28  UNL28      -0.1257
    218 C          -1.6449    8.8882   19.5841 C.3    28  UNL28       0.0198
    219 C          -0.1726    9.2420   19.5841 C.3    28  UNL28      -0.0517
    220 H          -2.1405    9.2892   18.6955 H      28  UNL28       0.0427
    221 H          -2.1405    9.2892   20.4726 H      28  UNL28       0.0427
    222 H          -0.0460   10.3293   19.5841 H      28  UNL28       0.0241
    223 H           0.3308    8.8444   20.4715 H      28  UNL28       0.0241
    224 H           0.3308    8.8444   18.6967 H      28  UNL28       0.0241
    225 CL          1.6965    9.3992   22.6408 Cl     29  UNL29      -0.1257
    226 C           0.1540    8.5175   22.6408 C.3    29  UNL29       0.0198
    227 C          -1.0105    9.4853   22.6408 C.3    29  UNL29      -0.0517
    228 H           0.1294    7.8804   21.7522 H      29  UNL29       0.0427
    229 H           0.1294    7.8804   23.5293 H      29  UNL29       0.0427
    230 H          -1.9574    8.9360   22.6408 H      29  UNL29       0.0241
    231 H          -0.9932   10.1265   23.5282 H      29  UNL29       0.0241
    232 H          -0.9932   10.1265   21.7534 H      29  UNL29       0.0241
    233 CL          1.4256   10.3927   25.8849 Cl     30  UNL30      -0.1257
    234 C           0.7446    8.7517   25.8849 C.3    30  UNL30       0.0198
    235 C          -0.7686    8.8050   25.8849 C.3    30  UNL30      -0.0517
    236 H           1.1149    8.2326   24.9963 H      30  UNL30       0.0427
    237 H           1.1149    8.2326   26.7734 H      30  UNL30       0.0427
    238 H          -1.1817    7.7913   25.8849 H      30  UNL30       0.0241
    239 H          -1.1471    9.3228   26.7723 H      30  UNL30       0.0241
    240 H          -1.1471    9.3228   24.9975 H      30  UNL30       0.0241
    241 CL          1.6429    9.2117   30.4469 Cl     31  UNL31      -0.1257
    242 C           0.4226    8.3300   29.5033 C.3    31  UNL31       0.0198
    243 C          -0.4987    9.2978   28.7910 C.3    31  UNL31      -0.0517
    244 H           0.9467    7.6929   28.7853 H      31  UNL31       0.0427
    245 H          -0.1404    7.6929   30.1912 H      31  UNL31       0.0427
    246 H          -1.2478    8.7485   28.2118 H      31  UNL31       0.0241
    247 H          -1.0278    9.9390   29.5036 H      31  UNL31       0.0241
    248 H           0.0578    9.9390   28.0996 H      31  UNL31       0.0241
    249 CL         -0.4972   14.2807   -0.8292 Cl     32  UNL32      -0.1257
    250 C          -0.0068   12.9568    0.2495 C.3    32  UNL32       0.0198
    251 C          -1.1562   11.9952    0.4659 C.3    32  UNL32      -0.0517
    252 H           0.8454   12.4466   -0.2082 H      32  UNL32       0.0427
    253 H           0.3159   13.3959    1.1977 H      32  UNL32       0.0427
    254 H          -0.8477   11.1823    1.1310 H      32  UNL32       0.0241
    255 H          -2.0135   12.4987    0.9247 H      32  UNL32       0.0241
    256 H          -1.4846   11.5506   -0.4794 H      32  UNL32       0.0241
    257 CL          1.9465   12.8936    3.4257 Cl     33  UNL33      -0.1257
    258 C           0.4040   12.0119    3.4257 C.3    33  UNL33       0.0198
    259 C          -0.7605   12.9797    3.4257 C.3    33  UNL33      -0.0517
    260 H           0.3794   11.3748    2.5371 H      33  UNL33       0.0427
    261 H           0.3794   11.3748    4.3142 H      33  UNL33       0.0427
    262 H          -1.7074   12.4304    3.4257 H      33  UNL33       0.0241
    263 H          -0.7432   13.6209    4.3131 H      33  UNL33       0.0241
    264 H          -0.7432   13.6209    2.5383 H      33  UNL33       0.0241
    265 CL         -1.6717   11.3195    7.1162 Cl     34  UNL34      -0.1257
    266 C          -0.8404   12.7146    6.3954 C.3    34  UNL34       0.0198
    267 C           0.4567   12.9944    7.1248 C.3    34  UNL34      -0.0517
    268 H          -0.6525   12.4883    5.3420 H      34  UNL34       0.0427
    269 H          -1.5125   13.5753    6.4542 H      34  UNL34       0.0427
    270 H           0.9637   13.8546    6.6761 H      34  UNL34       0.0241
    271 H           0.2767   13.2227    8.1804 H      34  UNL34       0.0241
    272 H           1.1355   12.1371    7.0697 H      34  UNL34       0.0241
    273 CL          1.4256   13.9496    9.9140 Cl     35  UNL35      -0.1257
    274 C           0.7446   12.3086    9.9140 C.3    35  UNL35       0.0198
    275 C          -0.7686   12.3619    9.9140 C.3    35  UNL35      -0.0517
    276 H           1.1149   11.7895    9.0254 H      35  UNL35       0.0427
    277 H           1.1149   11.7895   10.8025 H      35  UNL35       0.0427
    278 H          -1.1817   11.3481    9.9140 H      35  UNL35       0.0241
    279 H          -1.1471   12.8797   10.8014 H      35  UNL35       0.0241
    280 H          -1.1471   12.8797    9.0266 H      35  UNL35       0.0241
    281 CL         -1.0491   11.3195   12.0850 Cl     36  UNL36      -0.1257
    282 C          -0.8324   12.7146   13.1637 C.3    36  UNL36       0.0198
    283 C           0.6399   12.9944   13.3801 C.3    36  UNL36      -0.0517
    284 H          -1.3280   13.5753   12.7060 H      36  UNL36       0.0427
    285 H          -1.3280   12.4883   14.1119 H      36  UNL36       0.0427
    286 H           0.7665   13.8546   14.0452 H      36  UNL36       0.0241
    287 H           1.1433   12.1371   13.8389 H      36  UNL36       0.0241
    288 H           1.1433   13.2227   12.4349 H      36  UNL36       0.0241
    289 CL          1.4256   12.8000   17.9517 Cl     37  UNL37      -0.1257
    290 C           0.7446   12.3870   16.3635 C.3    37  UNL37       0.0198
    291 C          -0.7686   12.4004   16.4151 C.3    37  UNL37      -0.0517
    292 H           1.1149   13.1163   15.6375 H      37  UNL37       0.0427
    293 H           1.1149   11.3964   16.0848 H      37  UNL37       0.0427
    294 H          -1.1817   12.1452   15.4340 H      37  UNL37       0.0241
    295 H          -1.1471   11.6719   17.1396 H      37  UNL37       0.0241
    296 H          -1.1471   13.3895   16.6929 H      37  UNL37       0.0241
    297 CL         -2.0467   11.0695   19.1378 Cl     38  UNL38      -0.1257
    298 C          -1.2154   12.4646   19.8585 C.3    38  UNL38       0.0198
    299 C           0.0817   12.7444   19.1291 C.3    38  UNL38      -0.0517
    300 H          -1.8875   13.3253   19.7996 H      38  UNL38       0.0427
    301 H          -1.0276   12.2383   20.9118 H      38  UNL38       0.0427
    302 H           0.5887   13.6046   19.5779 H      38  UNL38       0.0241
    303 H           0.7605   11.8871   19.1842 H      38  UNL38       0.0241
    304 H          -0.0983   12.9727   18.0735 H      38  UNL38       0.0241
    305 CL          1.0506   14.3246   22.7658 Cl     39  UNL39      -0.1257
    306 C           0.3696   12.6836   22.7658 C.3    39  UNL39       0.0198
    307 C          -1.1436   12.7369   22.7658 C.3    39  UNL39      -0.0517
    308 H           0.7399   12.1645   21.8772 H      39  UNL39       0.0427
    309 H           0.7399   12.1645   23.6543 H      39  UNL39       0.0427
    310 H          -1.5567   11.7231   22.7658 H      39  UNL39       0.0241
    311 H          -1.5221   13.2547   23.6532 H      39  UNL39       0.0241
    312 H          -1.5221   13.2547   21.8784 H      39  UNL39       0.0241
    313 CL         -1.4241   11.1945   27.0206 Cl     40  UNL40      -0.1257
    314 C          -1.2074   12.5896   25.9420 C.3    40  UNL40       0.0198
    315 C           0.2649   12.8694   25.7256 C.3    40  UNL40      -0.0517
    316 H          -1.7030   12.3633   24.9937 H      40  UNL40       0.0427
    317 H          -1.7030   13.4503   26.3996 H      40  UNL40       0.0427
    318 H           0.3915   13.7296   25.0605 H      40  UNL40       0.0241
    319 H           0.7683   13.0977   26.6708 H      40  UNL40       0.0241
    320 H           0.7683   12.0121   25.2667 H      40  UNL40       0.0241
    321 CL          1.4256   13.9496   28.9416 Cl     41  UNL41      -0.1257
    322 C           0.7446   12.3086   28.9416 C.3    41  UNL41       0.0198
    323 C          -0.7686   12.3619   28.9416 C.3    41  UNL41      -0.0517
    324 H           1.1149   11.7895   28.0530 H      41  UNL41       0.0427
    325 H           1.1149   11.7895   29.8301 H      41  UNL41       0.0427
    326 H          -1.1817   11.3481   28.9416 H      41  UNL41       0.0241
    327 H          -1.1471   12.8797   29.8290 H      41  UNL41       0.0241
    328 H          -1.1471   12.8797   28.0542 H      41  UNL41       0.0241
    329 CL          1.3006   13.9496   32.3108 Cl     42  UNL42      -0.1257
    330 C           0.6196   12.3086   32.3108 C.3    42  UNL42       0.0198
    331 C          -0.8936   12.3619   32.3108 C.3    42  UNL42      -0.0517
    332 H           0.9899   11.7895   31.4222 H      42  UNL42       0.0427
    333 H           0.9899   11.7895   33.1993 H      42  UNL42       0.0427
    334 H          -1.3067   11.3481   32.3108 H      42  UNL42       0.0241
    335 H          -1.2721   12.8797   33.1982 H      42  UNL42       0.0241
    336 H          -1.2721   12.8797   31.4234 H      42  UNL42       0.0241
    337 CL          1.4256   16.3569   -0.8678 Cl     43  UNL43      -0.1257
    338 C           0.7446   15.9438    0.7204 C.3    43  UNL43       0.0198
    339 C          -0.7686   15.9573    0.6688 C.3    43  UNL43      -0.0517
    340 H           1.1149   14.9532    0.9991 H      43  UNL43       0.0427
    341 H           1.1149   16.6731    1.4464 H      43  UNL43       0.0427
    342 H          -1.1817   15.7021    1.6499 H      43  UNL43       0.0241
    343 H          -1.1471   16.9464    0.3910 H      43  UNL43       0.0241
    344 H          -1.1471   15.2288   -0.0557 H      43  UNL43       0.0241
    345 CL          1.9465   16.5754    6.7324 Cl     44  UNL44      -0.1257
    346 C           0.4040   15.6937    6.7324 C.3    44  UNL44       0.0198
    347 C          -0.7605   16.6615    6.7324 C.3    44  UNL44      -0.0517
    348 H           0.3794   15.0566    5.8438 H      44  UNL44       0.0427
    349 H           0.3794   15.0566    7.6209 H      44  UNL44       0.0427
    350 H          -1.7074   16.1122    6.7324 H      44  UNL44       0.0241
    351 H          -0.7432   17.3027    7.6198 H      44  UNL44       0.0241
    352 H          -0.7432   17.3027    5.8450 H      44  UNL44       0.0241
    353 CL         -1.1741   14.8764    8.8409 Cl     45  UNL45      -0.1257
    354 C          -0.9574   16.2715    9.9195 C.3    45  UNL45       0.0198
    355 C           0.5149   16.5513   10.1359 C.3    45  UNL45      -0.0517
    356 H          -1.4530   17.1322    9.4618 H      45  UNL45       0.0427
    357 H          -1.4530   16.0452   10.8677 H      45  UNL45       0.0427
    358 H           0.6415   17.4115   10.8010 H      45  UNL45       0.0241
    359 H           1.0183   15.6940   10.5947 H      45  UNL45       0.0241
    360 H           1.0183   16.7796    9.1907 H      45  UNL45       0.0241
    361 CL          1.4256   17.5065   13.0332 Cl     46  UNL46      -0.1257
    362 C           0.7446   15.8654   13.0332 C.3    46  UNL46       0.0198
    363 C          -0.7686   15.9188   13.0332 C.3    46  UNL46      -0.0517
    364 H           1.1149   15.3464   12.1446 H      46  UNL46       0.0427
    365 H           1.1149   15.3464   13.9217 H      46  UNL46       0.0427
    366 H          -1.1817   14.9050   13.0332 H      46  UNL46       0.0241
    367 H          -1.1471   16.4366   13.9206 H      46  UNL46       0.0241
    368 H          -1.1471   16.4366   12.1458 H      46  UNL46       0.0241
    369 CL          0.9340   16.9183   15.2667 Cl     47  UNL47      -0.1257
    370 C           0.0650   15.8055   16.3454 C.3    47  UNL47       0.0198
    371 C          -1.3570   16.2784   16.5618 C.3    47  UNL47      -0.0517
    372 H           0.0786   14.8123   15.8877 H      47  UNL47       0.0427
    373 H           0.6082   15.7616   17.2936 H      47  UNL47       0.0427
    374 H          -1.8867   15.5889   17.2269 H      47  UNL47       0.0241
    375 H          -1.3789   17.2723   17.0206 H      47  UNL47       0.0241
    376 H          -1.9078   16.3243   15.6165 H      47  UNL47       0.0241
    377 CL          1.6965   16.5754   19.5841 Cl     48  UNL48      -0.1257
    378 C           0.1540   15.6937   19.5841 C.3    48  UNL48       0.0198
    379 C          -1.0105   16.6615   19.5841 C.3    48  UNL48      -0.0517
    380 H           0.1294   15.0566   18.6955 H      48  UNL48       0.0427
    381 H           0.1294   15.0566   20.4726 H      48  UNL48       0.0427
    382 H          -1.9574   16.1122   19.5841 H      48  UNL48       0.0241
    383 H          -0.9932   17.3027   20.4715 H      48  UNL48       0.0241
    384 H          -0.9932   17.3027   18.6967 H      48  UNL48       0.0241
    385 CL          0.3840   16.5445   22.7857 Cl     49  UNL49      -0.1257
    386 C          -1.1585   15.7396   22.4259 C.3    49  UNL49       0.0198
    387 C          -2.3230   16.6231   22.8209 C.3    49  UNL49      -0.0517
    388 H          -1.1831   15.5206   21.3547 H      49  UNL49       0.0427
    389 H          -1.1831   14.7953   22.9771 H      49  UNL49       0.0427
    390 H          -3.2699   16.1216   22.5967 H      49  UNL49       0.0241
    391 H          -2.3057   16.8463   23.8927 H      49  UNL49       0.0241
    392 H          -2.3057   17.5706   22.2724 H      49  UNL49       0.0241
    393 CL          1.6965   16.7004   25.8849 Cl     50  UNL50      -0.1257
    394 C           0.1540   15.8187   25.8849 C.3    50  UNL50       0.0198
    395 C          -1.0105   16.7865   25.8849 C.3    50  UNL50      -0.0517
    396 H           0.1294   15.1816   24.9963 H      50  UNL50       0.0427
    397 H           0.1294   15.1816   26.7734 H      50  UNL50       0.0427
    398 H          -1.9574   16.2372   25.8849 H      50  UNL50       0.0241
    399 H          -0.9932   17.4277   26.7723 H      50  UNL50       0.0241
    400 H          -0.9932   17.4277   24.9975 H      50  UNL50       0.0241
    401 CL         -1.5491   14.7514   30.0148 Cl     51  UNL51      -0.1257
    402 C          -1.3324   16.1465   28.9361 C.3    51  UNL51       0.0198
    403 C           0.1399   16.4263   28.7197 C.3    51  UNL51      -0.0517
    404 H          -1.8280   15.9202   27.9879 H      51  UNL51       0.0427
    405 H          -1.8280   17.0072   29.3938 H      51  UNL51       0.0427
    406 H           0.2665   17.2865   28.0546 H      51  UNL51       0.0241
    407 H           0.6433   16.6546   29.6650 H      51  UNL51       0.0241
    408 H           0.6433   15.5690   28.2609 H      51  UNL51       0.0241
    409 CL         -1.5491   15.8779   34.0452 Cl     52  UNL52      -0.1257
    410 C          -1.3324   16.3218   32.3385 C.3    52  UNL52       0.0198
    411 C           0.1399   16.4108   31.9961 C.3    52  UNL52      -0.0517
    412 H          -1.8280   15.5627   31.7268 H      52  UNL52       0.0427
    413 H          -1.8280   17.2826   32.1741 H      52  UNL52       0.0427
    414 H           0.2665   16.6845   30.9438 H      52  UNL52       0.0241
    415 H           0.6433   17.1696   32.6043 H      52  UNL52       0.0241
    416 H           0.6433   15.4519   32.1576 H      52  UNL52       0.0241
    417 CL          1.4256   17.5065   35.6175 Cl     53  UNL53      -0.1257
    418 C           0.7446   15.8654   35.6175 C.3    53  UNL53       0.0198
    419 C          -0.7686   15.9188   35.6175 C.3    53  UNL53      -0.0517
    420 H           1.1149   15.3464   34.7289 H      53  UNL53       0.0427
    421 H           1.1149   15.3464   36.5060 H      53  UNL53       0.0427
    422 H          -1.1817   14.9050   35.6175 H      53  UNL53       0.0241
    423 H          -1.1471   16.4366   36.5049 H      53  UNL53       0.0241
    424 H          -1.1471   16.4366   34.7301 H      53  UNL53       0.0241
    425 CL         -0.4972   21.3945   -0.7042 Cl     54  UNL54      -0.1257
    426 C          -0.0068   20.0706    0.3745 C.3    54  UNL54       0.0198
    427 C          -1.1562   19.1089    0.5909 C.3    54  UNL54      -0.0517
    428 H           0.8454   19.5603   -0.0832 H      54  UNL54       0.0427
    429 H           0.3159   20.5096    1.3227 H      54  UNL54       0.0427
    430 H          -0.8477   18.2960    1.2560 H      54  UNL54       0.0241
    431 H          -2.0135   19.6124    1.0497 H      54  UNL54       0.0241
    432 H          -1.4846   18.6643   -0.3544 H      54  UNL54       0.0241
    433 CL          1.4256   20.0387    5.0375 Cl     55  UNL55      -0.1257
    434 C           0.7446   19.6257    3.4493 C.3    55  UNL55       0.0198
    435 C          -0.7686   19.6391    3.5009 C.3    55  UNL55      -0.0517
    436 H           1.1149   20.3551    2.7233 H      55  UNL55       0.0427
    437 H           1.1149   18.6352    3.1706 H      55  UNL55       0.0427
    438 H          -1.1817   19.3840    2.5198 H      55  UNL55       0.0241
    439 H          -1.1471   18.9106    4.2254 H      55  UNL55       0.0241
    440 H          -1.1471   20.6283    3.7787 H      55  UNL55       0.0241
    441 CL          0.8785   20.8607    8.0512 Cl     56  UNL56      -0.1257
    442 C           0.0722   19.4418    7.3489 C.3    56  UNL56       0.0198
    443 C          -0.3595   19.7270    5.9258 C.3    56  UNL56      -0.0517
    444 H           0.7745   18.6041    7.3811 H      56  UNL56       0.0427
    445 H          -0.7909   19.1996    7.9753 H      56  UNL56       0.0427
    446 H          -0.8553   18.8493    5.4991 H      56  UNL56       0.0241
    447 H          -1.0637   20.5645    5.8853 H      56  UNL56       0.0241
    448 H           0.4997   19.9697    5.2920 H      56  UNL56       0.0241
    449 CL          1.4256   21.0634   10.0390 Cl     57  UNL57      -0.1257
    450 C           0.7446   19.4223   10.0390 C.3    57  UNL57       0.0198
    451 C          -0.7686   19.4757   10.0390 C.3    57  UNL57      -0.0517
    452 H           1.1149   18.9033    9.1504 H      57  UNL57       0.0427
    453 H           1.1149   18.9033   10.9275 H      57  UNL57       0.0427
    454 H          -1.1817   18.4619   10.0390 H      57  UNL57       0.0241
    455 H          -1.1471   19.9935   10.9264 H      57  UNL57       0.0241
    456 H          -1.1471   19.9935    9.1516 H      57  UNL57       0.0241
    457 CL         -1.0491   18.4333   12.0850 Cl     58  UNL58      -0.1257
    458 C          -0.8324   19.8283   13.1637 C.3    58  UNL58       0.0198
    459 C           0.6399   20.1082   13.3801 C.3    58  UNL58      -0.0517
    460 H          -1.3280   20.6891   12.7060 H      58  UNL58       0.0427
    461 H          -1.3280   19.6021   14.1119 H      58  UNL58       0.0427
    462 H           0.7665   20.9684   14.0452 H      58  UNL58       0.0241
    463 H           1.1433   19.2509   13.8389 H      58  UNL58       0.0241
    464 H           1.1433   20.3365   12.4349 H      58  UNL58       0.0241
    465 CL          1.4256   20.1637   17.8267 Cl     59  UNL59      -0.1257
    466 C           0.7446   19.7507   16.2385 C.3    59  UNL59       0.0198
    467 C          -0.7686   19.7641   16.2901 C.3    59  UNL59      -0.0517
    468 H           1.1149   20.4801   15.5125 H      59  UNL59       0.0427
    469 H           1.1149   18.7602   15.9598 H      59  UNL59       0.0427
    470 H          -1.1817   19.5090   15.3090 H      59  UNL59       0.0241
    471 H          -1.1471   19.0356   17.0146 H      59  UNL59       0.0241
    472 H          -1.1471   20.7533   16.5679 H      59  UNL59       0.0241
    473 CL          1.0506   21.1884   19.3341 Cl     60  UNL60      -0.1257
    474 C           0.3696   19.5473   19.3341 C.3    60  UNL60       0.0198
    475 C          -1.1436   19.6007   19.3341 C.3    60  UNL60      -0.0517
    476 H           0.7399   19.0283   18.4455 H      60  UNL60       0.0427
    477 H           0.7399   19.0283   20.2226 H      60  UNL60       0.0427
    478 H          -1.5567   18.5869   19.3341 H      60  UNL60       0.0241
    479 H          -1.5221   20.1185   20.2215 H      60  UNL60       0.0241
    480 H          -1.5221   20.1185   18.4467 H      60  UNL60       0.0241
    481 CL          0.1609   20.0698   24.5643 Cl     61  UNL61      -0.1257
    482 C          -0.2273   19.1881   23.0715 C.3    61  UNL61       0.0198
    483 C          -0.5204   20.1559   21.9445 C.3    61  UNL61      -0.0517
    484 H           0.6265   18.5510   22.8240 H      61  UNL61       0.0427
    485 H          -1.0934   18.5510   23.2713 H      61  UNL61       0.0427
    486 H          -0.7587   19.6066   21.0280 H      61  UNL61       0.0241
    487 H          -1.3749   20.7971   22.1846 H      61  UNL61       0.0241
    488 H           0.3428   20.7971   21.7379 H      61  UNL61       0.0241
    489 CL          1.5179   20.2573   27.0777 Cl     62  UNL62      -0.1257
    490 C           0.2976   19.3756   26.1342 C.3    62  UNL62       0.0198
    491 C          -0.6237   20.3434   25.4219 C.3    62  UNL62      -0.0517
    492 H           0.8217   18.7385   25.4161 H      62  UNL62       0.0427
    493 H          -0.2654   18.7385   26.8220 H      62  UNL62       0.0427
    494 H          -1.3728   19.7941   24.8427 H      62  UNL62       0.0241
    495 H          -1.1528   20.9846   26.1345 H      62  UNL62       0.0241
    496 H          -0.0672   20.9846   24.7304 H      62  UNL62       0.0241
    497 CL          1.5179   20.1323   30.1344 Cl     63  UNL63      -0.1257
    498 C           0.2976   19.2506   29.1908 C.3    63  UNL63       0.0198
    499 C          -0.6237   20.2184   28.4785 C.3    63  UNL63      -0.0517
    500 H           0.8217   18.6135   28.4728 H      63  UNL63       0.0427
    501 H          -0.2654   18.6135   29.8787 H      63  UNL63       0.0427
    502 H          -1.3728   19.6691   27.8993 H      63  UNL63       0.0241
    503 H          -1.1528   20.8596   29.1911 H      63  UNL63       0.0241
    504 H          -0.0672   20.8596   27.7871 H      63  UNL63       0.0241
    505 CL          1.4256   21.0634   32.3108 Cl     64  UNL64      -0.1257
    506 C           0.7446   19.4223   32.3108 C.3    64  UNL64       0.0198
    507 C          -0.7686   19.4757   32.3108 C.3    64  UNL64      -0.0517
    508 H           1.1149   18.9033   31.4222 H      64  UNL64       0.0427
    509 H           1.1149   18.9033   33.1993 H      64  UNL64       0.0427
    510 H          -1.1817   18.4619   32.3108 H      64  UNL64       0.0241
    511 H          -1.1471   19.9935   33.1982 H      64  UNL64       0.0241
    512 H          -1.1471   19.9935   31.4234 H      64  UNL64       0.0241
    513 CL         -0.4972   21.3945   34.4193 Cl     65  UNL65      -0.1257
    514 C          -0.0068   20.0706   35.4980 C.3    65  UNL65       0.0198
    515 C          -1.1562   19.1089   35.7143 C.3    65  UNL65      -0.0517
    516 H           0.8454   19.5603   35.0403 H      65  UNL65       0.0427
    517 H           0.3159   20.5096   36.4461 H      65  UNL65       0.0427
    518 H          -0.8477   18.2960   36.3795 H      65  UNL65       0.0241
    519 H          -2.0135   19.6124   36.1732 H      65  UNL65       0.0241
    520 H          -1.4846   18.6643   34.7691 H      65  UNL65       0.0241
    521 CL          1.4256   23.4706   -1.1178 Cl     66  UNL66      -0.1257
    522 C           0.7446   23.0576    0.4704 C.3    66  UNL66       0.0198
    523 C          -0.7686   23.0710    0.4188 C.3    66  UNL66      -0.0517
    524 H           1.1149   22.0670    0.7491 H      66  UNL66       0.0427
    525 H           1.1149   23.7869    1.1964 H      66  UNL66       0.0427
    526 H          -1.1817   22.8159    1.3999 H      66  UNL66       0.0241
    527 H          -1.1471   24.0602    0.1410 H      66  UNL66       0.0241
    528 H          -1.1471   22.3425   -0.3057 H      66  UNL66       0.0241
    529 CL          0.6340   23.6583    3.9456 Cl     67  UNL67      -0.1257
    530 C          -0.9085   22.8533    3.5858 C.3    67  UNL67       0.0198
    531 C          -2.0730   23.7369    3.9808 C.3    67  UNL67      -0.0517
    532 H          -0.9331   22.6343    2.5146 H      67  UNL67       0.0427
    533 H          -0.9331   21.9091    4.1370 H      67  UNL67       0.0427
    534 H          -3.0199   23.2354    3.7566 H      67  UNL67       0.0241
    535 H          -2.0557   23.9601    5.0526 H      67  UNL67       0.0241
    536 H          -2.0557   24.6844    3.4323 H      67  UNL67       0.0241
    537 CL          1.4256   24.6202    6.7324 Cl     68  UNL68      -0.1257
    538 C           0.7446   22.9792    6.7324 C.3    68  UNL68       0.0198
    539 C          -0.7686   23.0325    6.7324 C.3    68  UNL68      -0.0517
    540 H           1.1149   22.4601    5.8438 H      68  UNL68       0.0427
    541 H           1.1149   22.4601    7.6209 H      68  UNL68       0.0427
    542 H          -1.1817   22.0188    6.7324 H      68  UNL68       0.0241
    543 H          -1.1471   23.5504    7.6198 H      68  UNL68       0.0241
    544 H          -1.1471   23.5504    5.8450 H      68  UNL68       0.0241
    545 CL         -1.0491   21.9902    8.8409 Cl     69  UNL69      -0.1257
    546 C          -0.8324   23.3852    9.9195 C.3    69  UNL69       0.0198
    547 C           0.6399   23.6651   10.1359 C.3    69  UNL69      -0.0517
    548 H          -1.3280   24.2460    9.4618 H      69  UNL69       0.0427
    549 H          -1.3280   23.1590   10.8677 H      69  UNL69       0.0427
    550 H           0.7665   24.5253   10.8010 H      69  UNL69       0.0241
    551 H           1.1433   22.8077   10.5947 H      69  UNL69       0.0241
    552 H           1.1433   23.8933    9.1907 H      69  UNL69       0.0241
    553 CL          1.4256   24.6202   13.0332 Cl     70  UNL70      -0.1257
    554 C           0.7446   22.9792   13.0332 C.3    70  UNL70       0.0198
    555 C          -0.7686   23.0325   13.0332 C.3    70  UNL70      -0.0517
    556 H           1.1149   22.4601   12.1446 H      70  UNL70       0.0427
    557 H           1.1149   22.4601   13.9217 H      70  UNL70       0.0427
    558 H          -1.1817   22.0188   13.0332 H      70  UNL70       0.0241
    559 H          -1.1471   23.5504   13.9206 H      70  UNL70       0.0241
    560 H          -1.1471   23.5504   12.1458 H      70  UNL70       0.0241
    561 CL          1.3729   24.6207   16.4024 Cl     71  UNL71      -0.1257
    562 C           0.3245   23.1863   16.4024 C.3    71  UNL71       0.0198
    563 C          -1.1335   23.5946   16.4024 C.3    71  UNL71      -0.0517
    564 H           0.5621   22.5946   15.5138 H      71  UNL71       0.0427
    565 H           0.5621   22.5946   17.2909 H      71  UNL71       0.0427
    566 H          -1.7738   22.7067   16.4024 H      71  UNL71       0.0241
    567 H          -1.3794   24.1871   17.2898 H      71  UNL71       0.0241
    568 H          -1.3794   24.1871   15.5150 H      71  UNL71       0.0241
    569 CL          0.6340   23.6583   19.5016 Cl     72  UNL72      -0.1257
    570 C          -0.9085   22.8533   19.8614 C.3    72  UNL72       0.0198
    571 C          -2.0730   23.7369   19.4665 C.3    72  UNL72      -0.0517
    572 H          -0.9331   21.9091   19.3102 H      72  UNL72       0.0427
    573 H          -0.9331   22.6343   20.9326 H      72  UNL72       0.0427
    574 H          -3.0199   23.2354   19.6906 H      72  UNL72       0.0241
    575 H          -2.0557   24.6844   20.0149 H      72  UNL72       0.0241
    576 H          -2.0557   23.9601   18.3947 H      72  UNL72       0.0241
    577 CL          1.8215   23.8142   22.7033 Cl     73  UNL73      -0.1257
    578 C           0.2790   22.9325   22.7033 C.3    73  UNL73       0.0198
    579 C          -0.8855   23.9003   22.7033 C.3    73  UNL73      -0.0517
    580 H           0.2544   22.2954   21.8147 H      73  UNL73       0.0427
    581 H           0.2544   22.2954   23.5918 H      73  UNL73       0.0427
    582 H          -1.8324   23.3510   22.7033 H      73  UNL73       0.0241
    583 H          -0.8682   24.5415   23.5907 H      73  UNL73       0.0241
    584 H          -0.8682   24.5415   21.8159 H      73  UNL73       0.0241
    585 CL          1.1850   21.5575   28.1362 Cl     74  UNL74      -0.1257
    586 C           0.2108   22.4764   29.3038 C.3    74  UNL74       0.0198
    587 C          -0.2640   23.7773   28.6913 C.3    74  UNL74      -0.0517
    588 H          -0.6383   21.8536   29.5991 H      74  UNL74       0.0427
    589 H           0.8298   22.6654   30.1852 H      74  UNL74       0.0427
    590 H          -0.8633   24.3384   29.4154 H      74  UNL74       0.0241
    591 H           0.5808   24.4070   28.3936 H      74  UNL74       0.0241
    592 H          -0.8854   23.5963   27.8082 H      74  UNL74       0.0241
    593 CL         -1.7707   25.0607   31.7678 Cl     75  UNL75      -0.1257
    594 C          -0.6262   23.7368   31.4608 C.3    75  UNL75       0.0198
    595 C          -0.6011   22.7752   32.6301 C.3    75  UNL75      -0.0517
    596 H          -0.9381   23.2266   30.5451 H      75  UNL75       0.0427
    597 H           0.3620   24.1759   31.2978 H      75  UNL75       0.0427
    598 H           0.1056   21.9623   32.4347 H      75  UNL75       0.0241
    599 H          -0.2888   23.2787   33.5509 H      75  UNL75       0.0241
    600 H          -1.5873   22.3306   32.7992 H      75  UNL75       0.0241
    601 CL          0.9340   27.5889    1.6297 Cl     76  UNL76      -0.1257
    602 C           0.0650   26.4762    0.5510 C.3    76  UNL76       0.0198
    603 C          -1.3570   26.9490    0.3346 C.3    76  UNL76      -0.0517
    604 H           0.6082   26.4323   -0.3972 H      76  UNL76       0.0427
    605 H           0.0786   25.4830    1.0086 H      76  UNL76       0.0427
    606 H          -1.8867   26.2595   -0.3305 H      76  UNL76       0.0241
    607 H          -1.9078   26.9949    1.2799 H      76  UNL76       0.0241
    608 H          -1.3789   27.9430   -0.1242 H      76  UNL76       0.0241
    609 CL          0.0671   28.8413    3.5507 Cl     77  UNL77      -0.1257
    610 C           0.5322   27.1266    3.5507 C.3    77  UNL77       0.0198
    611 C          -0.6975   26.2431    3.5507 C.3    77  UNL77      -0.0517
    612 H           1.1426   26.9424    2.6621 H      77  UNL77       0.0427
    613 H           1.1426   26.9424    4.4392 H      77  UNL77       0.0427
    614 H          -0.4042   25.1885    3.5507 H      77  UNL77       0.0241
    615 H          -1.3137   26.4213    4.4381 H      77  UNL77       0.0241
    616 H          -1.3137   26.4213    2.6633 H      77  UNL77       0.0241
    617 CL         -0.9241   25.2970    5.7842 Cl     78  UNL78      -0.1257
    618 C          -0.7074   26.6921    6.8628 C.3    78  UNL78       0.0198
    619 C           0.7649   26.9720    7.0792 C.3    78  UNL78      -0.0517
    620 H          -1.2030   27.5529    6.4051 H      78  UNL78       0.0427
    621 H          -1.2030   26.4658    7.8110 H      78  UNL78       0.0427
    622 H           0.8915   27.8322    7.7443 H      78  UNL78       0.0241
    623 H           1.2683   26.1146    7.5380 H      78  UNL78       0.0241
    624 H           1.2683   27.2002    6.1340 H      78  UNL78       0.0241
    625 CL          1.3006   28.1771   10.0390 Cl     79  UNL79      -0.1257
    626 C           0.6196   26.5361   10.0390 C.3    79  UNL79       0.0198
    627 C          -0.8936   26.5894   10.0390 C.3    79  UNL79      -0.0517
    628 H           0.9899   26.0170    9.1504 H      79  UNL79       0.0427
    629 H           0.9899   26.0170   10.9275 H      79  UNL79       0.0427
    630 H          -1.3067   25.5757   10.0390 H      79  UNL79       0.0241
    631 H          -1.2721   27.1072   10.9264 H      79  UNL79       0.0241
    632 H          -1.2721   27.1072    9.1516 H      79  UNL79       0.0241
    633 CL         -0.9241   25.5470   11.9600 Cl     80  UNL80      -0.1257
    634 C          -0.7074   26.9421   13.0387 C.3    80  UNL80       0.0198
    635 C           0.7649   27.2220   13.2551 C.3    80  UNL80      -0.0517
    636 H          -1.2030   27.8029   12.5810 H      80  UNL80       0.0427
    637 H          -1.2030   26.7158   13.9869 H      80  UNL80       0.0427
    638 H           0.8915   28.0822   13.9202 H      80  UNL80       0.0241
    639 H           1.2683   26.3646   13.7139 H      80  UNL80       0.0241
    640 H           1.2683   27.4502   12.3099 H      80  UNL80       0.0241
    641 CL          1.1756   28.4271   16.3399 Cl     81  UNL81      -0.1257
    642 C           0.4946   26.7861   16.3399 C.3    81  UNL81       0.0198
    643 C          -1.0186   26.8394   16.3399 C.3    81  UNL81      -0.0517
    644 H           0.8649   26.2670   15.4513 H      81  UNL81       0.0427
    645 H           0.8649   26.2670   17.2284 H      81  UNL81       0.0427
    646 H          -1.4317   25.8257   16.3399 H      81  UNL81       0.0241
    647 H          -1.3971   27.3572   17.2273 H      81  UNL81       0.0241
    648 H          -1.3971   27.3572   15.4525 H      81  UNL81       0.0241
    649 CL          1.6102   25.9166   19.4591 Cl     82  UNL82      -0.1257
    650 C          -0.1494   26.1626   19.4591 C.3    82  UNL82       0.0198
    651 C          -0.4787   27.6406   19.4591 C.3    82  UNL82      -0.0517
    652 H          -0.5586   25.6737   18.5705 H      82  UNL82       0.0427
    653 H          -0.5586   25.6737   20.3476 H      82  UNL82       0.0427
    654 H          -1.5638   27.7852   19.4591 H      82  UNL82       0.0241
    655 H          -0.0728   28.1372   20.3465 H      82  UNL82       0.0241
    656 H          -0.0728   28.1372   18.5717 H      82  UNL82       0.0241
    657 CL          1.8215   27.3086   22.6408 Cl     83  UNL83      -0.1257
    658 C           0.2790   26.4269   22.6408 C.3    83  UNL83       0.0198
    659 C          -0.8855   27.3947   22.6408 C.3    83  UNL83      -0.0517
    660 H           0.2544   25.7898   21.7522 H      83  UNL83       0.0427
    661 H           0.2544   25.7898   23.5293 H      83  UNL83       0.0427
    662 H          -1.8324   26.8454   22.6408 H      83  UNL83       0.0241
    663 H          -0.8682   28.0359   23.5282 H      83  UNL83       0.0241
    664 H          -0.8682   28.0359   21.7534 H      83  UNL83       0.0241
    665 CL          2.0090   27.0586   25.9474 Cl     84  UNL84      -0.1257
    666 C           0.4665   26.1769   25.9474 C.3    84  UNL84       0.0198
    667 C          -0.6980   27.1447   25.9474 C.3    84  UNL84      -0.0517
    668 H           0.4419   25.5398   25.0588 H      84  UNL84       0.0427
    669 H           0.4419   25.5398   26.8359 H      84  UNL84       0.0427
    670 H          -1.6449   26.5954   25.9474 H      84  UNL84       0.0241
    671 H          -0.6807   27.7859   26.8348 H      84  UNL84       0.0241
    672 H          -0.6807   27.7859   25.0600 H      84  UNL84       0.0241
    673 CL          0.9340   27.5889   27.7434 Cl     85  UNL85      -0.1257
    674 C           0.0650   26.4762   28.8221 C.3    85  UNL85       0.0198
    675 C          -1.3570   26.9490   29.0385 C.3    85  UNL85      -0.0517
    676 H           0.0786   25.4830   28.3644 H      85  UNL85       0.0427
    677 H           0.6082   26.4323   29.7703 H      85  UNL85       0.0427
    678 H          -1.8867   26.2595   29.7036 H      85  UNL85       0.0241
    679 H          -1.3789   27.9430   29.4973 H      85  UNL85       0.0241
    680 H          -1.9078   26.9949   28.0933 H      85  UNL85       0.0241
    681 CL          1.8602   25.6666   32.1858 Cl     86  UNL86      -0.1257
    682 C           0.1006   25.9126   32.1858 C.3    86  UNL86       0.0198
    683 C          -0.2287   27.3906   32.1858 C.3    86  UNL86      -0.0517
    684 H          -0.3086   25.4237   31.2972 H      86  UNL86       0.0427
    685 H          -0.3086   25.4237   33.0743 H      86  UNL86       0.0427
    686 H          -1.3138   27.5352   32.1858 H      86  UNL86       0.0241
    687 H           0.1772   27.8872   33.0732 H      86  UNL86       0.0241
    688 H           0.1772   27.8872   31.2984 H      86  UNL86       0.0241
    689 CL         -0.4972   28.5082   34.2943 Cl     87  UNL87      -0.1257
    690 C          -0.0068   27.1843   35.3730 C.3    87  UNL87       0.0198
    691 C          -1.1562   26.2227   35.5893 C.3    87  UNL87      -0.0517
    692 H           0.8454   26.6741   34.9153 H      87  UNL87       0.0427
    693 H           0.3159   27.6234   36.3211 H      87  UNL87       0.0427
    694 H          -0.8477   25.4098   36.2545 H      87  UNL87       0.0241
    695 H          -2.0135   26.7262   36.0482 H      87  UNL87       0.0241
    696 H          -1.4846   25.7781   34.6441 H      87  UNL87       0.0241
    697 CL          1.4256   30.5844   -1.1178 Cl     88  UNL88      -0.1257
    698 C           0.7446   30.1714    0.4704 C.3    88  UNL88       0.0198
    699 C          -0.7686   30.1848    0.4188 C.3    88  UNL88      -0.0517
    700 H           1.1149   29.1807    0.7491 H      88  UNL88       0.0427
    701 H           1.1149   30.9006    1.1964 H      88  UNL88       0.0427
    702 H          -1.1817   29.9296    1.3999 H      88  UNL88       0.0241
    703 H          -1.1471   31.1740    0.1410 H      88  UNL88       0.0241
    704 H          -1.1471   29.4563   -0.3057 H      88  UNL88       0.0241
    705 CL         -0.1646   31.2848    3.2661 Cl     89  UNL89      -0.1257
    706 C          -1.7076   30.7587    3.9725 C.3    89  UNL89       0.0198
    707 C          -2.2746   29.5882    3.1971 C.3    89  UNL89      -0.0517
    708 H          -1.5249   30.4821    5.0147 H      89  UNL89       0.0427
    709 H          -2.3957   31.6084    3.9511 H      89  UNL89       0.0427
    710 H          -3.2248   29.2691    3.6372 H      89  UNL89       0.0241
    711 H          -2.4611   29.8577    2.1523 H      89  UNL89       0.0241
    712 H          -1.5913   28.7328    3.2145 H      89  UNL89       0.0241
    713 CL          1.9465   30.8030    6.8574 Cl     90  UNL90      -0.1257
    714 C           0.4040   29.9213    6.8574 C.3    90  UNL90       0.0198
    715 C          -0.7605   30.8891    6.8574 C.3    90  UNL90      -0.0517
    716 H           0.3794   29.2842    5.9688 H      90  UNL90       0.0427
    717 H           0.3794   29.2842    7.7459 H      90  UNL90       0.0427
    718 H          -1.7074   30.3398    6.8574 H      90  UNL90       0.0241
    719 H          -0.7432   31.5303    7.7448 H      90  UNL90       0.0241
    720 H          -0.7432   31.5303    5.9700 H      90  UNL90       0.0241
    721 CL         -1.1741   29.1039    8.8409 Cl     91  UNL91      -0.1257
    722 C          -0.9574   30.4990    9.9195 C.3    91  UNL91       0.0198
    723 C           0.5149   30.7788   10.1359 C.3    91  UNL91      -0.0517
    724 H          -1.4530   31.3597    9.4618 H      91  UNL91       0.0427
    725 H          -1.4530   30.2727   10.8677 H      91  UNL91       0.0427
    726 H           0.6415   31.6390   10.8010 H      91  UNL91       0.0241
    727 H           1.0183   29.9215   10.5947 H      91  UNL91       0.0241
    728 H           1.0183   31.0071    9.1907 H      91  UNL91       0.0241
    729 CL          1.4881   30.5119   14.7987 Cl     92  UNL92      -0.1257
    730 C           0.8071   30.2431   13.1799 C.3    92  UNL92       0.0198
    731 C          -0.7061   30.2518   13.2325 C.3    92  UNL92      -0.0517
    732 H           1.1774   31.0346   12.5223 H      92  UNL92       0.0427
    733 H           1.1774   29.2815   12.8134 H      92  UNL92       0.0427
    734 H          -1.1192   30.0857   12.2324 H      92  UNL92       0.0241
    735 H          -1.0846   29.4612   13.8887 H      92  UNL92       0.0241
    736 H          -1.0846   31.2120   13.5979 H      92  UNL92       0.0241
    737 CL         -1.5491   30.1054   14.3555 Cl     93  UNL93      -0.1257
    738 C          -1.3324   30.5493   16.0622 C.3    93  UNL93       0.0198
    739 C           0.1399   30.6383   16.4045 C.3    93  UNL93      -0.0517
    740 H          -1.8280   31.5102   16.2266 H      93  UNL93       0.0427
    741 H          -1.8280   29.7903   16.6739 H      93  UNL93       0.0427
    742 H           0.2665   30.9120   17.4569 H      93  UNL93       0.0241
    743 H           0.6433   29.6794   16.2431 H      93  UNL93       0.0241
    744 H           0.6433   31.3971   15.7964 H      93  UNL93       0.0241
    745 CL          2.0090   30.8030   22.7658 Cl     94  UNL94      -0.1257
    746 C           0.4665   29.9213   22.7658 C.3    94  UNL94       0.0198
    747 C          -0.6980   30.8891   22.7658 C.3    94  UNL94      -0.0517
    748 H           0.4419   29.2842   21.8772 H      94  UNL94       0.0427
    749 H           0.4419   29.2842   23.6543 H      94  UNL94       0.0427
    750 H          -1.6449   30.3398   22.7658 H      94  UNL94       0.0241
    751 H          -0.6807   31.5303   23.6532 H      94  UNL94       0.0241
    752 H          -0.6807   31.5303   21.8784 H      94  UNL94       0.0241
    753 CL         -0.1646   31.2848   26.1695 Cl     95  UNL95      -0.1257
    754 C          -1.7076   30.7587   25.4631 C.3    95  UNL95       0.0198
    755 C          -2.2746   29.5882   26.2385 C.3    95  UNL95      -0.0517
    756 H          -2.3958   31.6085   25.4845 H      95  UNL95       0.0427
    757 H          -1.5249   30.4822   24.4210 H      95  UNL95       0.0427
    758 H          -3.2248   29.2691   25.7984 H      95  UNL95       0.0241
    759 H          -1.5913   28.7328   26.2211 H      95  UNL95       0.0241
    760 H          -2.4611   29.8576   27.2833 H      95  UNL95       0.0241
    761 CL          1.8602   29.2235   28.9416 Cl     96  UNL96      -0.1257
    762 C           0.1006   29.4695   28.9416 C.3    96  UNL96       0.0198
    763 C          -0.2287   30.9474   28.9416 C.3    96  UNL96      -0.0517
    764 H          -0.3086   28.9805   28.0530 H      96  UNL96       0.0427
    765 H          -0.3086   28.9805   29.8301 H      96  UNL96       0.0427
    766 H          -1.3138   31.0921   28.9416 H      96  UNL96       0.0241
    767 H           0.1772   31.4441   29.8290 H      96  UNL96       0.0241
    768 H           0.1772   31.4441   28.0542 H      96  UNL96       0.0241
    769 CL          0.9340   31.2708   30.9876 Cl     97  UNL97      -0.1257
    770 C           0.0650   30.1581   32.0663 C.3    97  UNL97       0.0198
    771 C          -1.3570   30.6309   32.2827 C.3    97  UNL97      -0.0517
    772 H           0.0786   29.1649   31.6086 H      97  UNL97       0.0427
    773 H           0.6082   30.1142   33.0145 H      97  UNL97       0.0427
    774 H          -1.8867   29.9414   32.9478 H      97  UNL97       0.0241
    775 H          -1.3789   31.6249   32.7415 H      97  UNL97       0.0241
    776 H          -1.9078   30.6768   31.3374 H      97  UNL97       0.0241
    777 CL          0.9340   34.8277    1.5047 Cl     98  UNL98      -0.1257
    778 C           0.0650   33.7149    0.4260 C.3    98  UNL98       0.0198
    779 C          -1.3570   34.1878    0.2096 C.3    98  UNL98      -0.0517
    780 H           0.6082   33.6711   -0.5222 H      98  UNL98       0.0427
    781 H           0.0786   32.7218    0.8836 H      98  UNL98       0.0427
    782 H          -1.8867   33.4982   -0.4555 H      98  UNL98       0.0241
    783 H          -1.9078   34.2337    1.1549 H      98  UNL98       0.0241
    784 H          -1.3789   35.1817   -0.2492 H      98  UNL98       0.0241
    785 CL          1.3006   35.4159    3.5507 Cl     99  UNL99      -0.1257
    786 C           0.6196   33.7748    3.5507 C.3    99  UNL99       0.0198
    787 C          -0.8936   33.8282    3.5507 C.3    99  UNL99      -0.0517
    788 H           0.9899   33.2558    2.6621 H      99  UNL99       0.0427
    789 H           0.9899   33.2558    4.4392 H      99  UNL99       0.0427
    790 H          -1.3067   32.8144    3.5507 H      99  UNL99       0.0241
    791 H          -1.2721   34.3460    4.4381 H      99  UNL99       0.0241
    792 H          -1.2721   34.3460    2.6633 H      99  UNL99       0.0241
    793 CL          1.6185   34.5867    6.4388 Cl    100  UNL100     -0.1257
    794 C           0.2129   33.6845    7.0445 C.3   100  UNL100      0.0198
    795 C          -1.0562   34.4879    6.8531 C.3   100  UNL100     -0.0517
    796 H           0.1591   32.7378    6.4995 H     100  UNL100      0.0427
    797 H           0.3805   33.4698    8.1037 H     100  UNL100      0.0427
    798 H          -1.9180   33.9267    7.2281 H     100  UNL100      0.0241
    799 H          -1.0102   35.4373    7.3966 H     100  UNL100      0.0241
    800 H          -1.2313   34.7062    5.7945 H     100  UNL100      0.0241
    801 CL          1.6102   33.1554   10.0390 Cl    101  UNL101     -0.1257
    802 C          -0.1494   33.4014   10.0390 C.3   101  UNL101      0.0198
    803 C          -0.4787   34.8793   10.0390 C.3   101  UNL101     -0.0517
    804 H          -0.5586   32.9124    9.1504 H     101  UNL101      0.0427
    805 H          -0.5586   32.9124   10.9275 H     101  UNL101      0.0427
    806 H          -1.5638   35.0240   10.0390 H     101  UNL101      0.0241
    807 H          -0.0728   35.3760   10.9264 H     101  UNL101      0.0241
    808 H          -0.0728   35.3760    9.1516 H     101  UNL101      0.0241
    809 CL         -1.2366   32.6608   14.1689 Cl    102  UNL102     -0.1257
    810 C          -1.0199   34.0559   13.0902 C.3   102  UNL102      0.0198
    811 C           0.4524   34.3357   12.8739 C.3   102  UNL102     -0.0517
    812 H          -1.5155   33.8296   12.1420 H     102  UNL102      0.0427
    813 H          -1.5155   34.9166   13.5479 H     102  UNL102      0.0427
    814 H           0.5790   35.1959   12.2087 H     102  UNL102      0.0241
    815 H           0.9558   34.5640   13.8191 H     102  UNL102      0.0241
    816 H           0.9558   33.4784   12.4150 H     102  UNL102      0.0241
    817 CL          1.6965   34.4848   16.4024 Cl    103  UNL103     -0.1257
    818 C           0.1540   33.6031   16.4024 C.3   103  UNL103      0.0198
    819 C          -1.0105   34.5709   16.4024 C.3   103  UNL103     -0.0517
    820 H           0.1294   32.9660   15.5138 H     103  UNL103      0.0427
    821 H           0.1294   32.9660   17.2909 H     103  UNL103      0.0427
    822 H          -1.9574   34.0216   16.4024 H     103  UNL103      0.0241
    823 H          -0.9932   35.2121   17.2898 H     103  UNL103      0.0241
    824 H          -0.9932   35.2121   15.5150 H     103  UNL103      0.0241
    825 CL          1.4852   32.9679   19.5216 Cl    104  UNL104     -0.1257
    826 C          -0.2744   33.2139   19.5216 C.3   104  UNL104      0.0198
    827 C          -0.6037   34.6918   19.5216 C.3   104  UNL104     -0.0517
    828 H          -0.6836   32.7249   18.6330 H     104  UNL104      0.0427
    829 H          -0.6836   32.7249   20.4101 H     104  UNL104      0.0427
    830 H          -1.6888   34.8365   19.5216 H     104  UNL104      0.0241
    831 H          -0.1978   35.1885   20.4090 H     104  UNL104      0.0241
    832 H          -0.1978   35.1885   18.6342 H     104  UNL104      0.0241
    833 CL          1.2381   34.3288   24.0026 Cl    105  UNL105     -0.1257
    834 C           0.5571   33.9157   22.4144 C.3   105  UNL105      0.0198
    835 C          -0.9561   33.9292   22.4660 C.3   105  UNL105     -0.0517
    836 H           0.9274   34.6451   21.6884 H     105  UNL105      0.0427
    837 H           0.9274   32.9252   22.1356 H     105  UNL105      0.0427
    838 H          -1.3692   33.6740   21.4848 H     105  UNL105      0.0241
    839 H          -1.3346   33.2007   23.1905 H     105  UNL105      0.0241
    840 H          -1.3346   34.9183   22.7438 H     105  UNL105      0.0241
    841 CL          1.4256   35.5409   25.8224 Cl    106  UNL106     -0.1257
    842 C           0.7446   33.8998   25.8224 C.3   106  UNL106      0.0198
    843 C          -0.7686   33.9532   25.8224 C.3   106  UNL106     -0.0517
    844 H           1.1149   33.3808   24.9338 H     106  UNL106      0.0427
    845 H           1.1149   33.3808   26.7109 H     106  UNL106      0.0427
    846 H          -1.1817   32.9394   25.8224 H     106  UNL106      0.0241
    847 H          -1.1471   34.4710   26.7098 H     106  UNL106      0.0241
    848 H          -1.1471   34.4710   24.9350 H     106  UNL106      0.0241
    849 CL          0.9340   34.8277   27.9934 Cl    107  UNL107     -0.1257
    850 C           0.0650   33.7149   29.0721 C.3   107  UNL107      0.0198
    851 C          -1.3570   34.1878   29.2885 C.3   107  UNL107     -0.0517
    852 H           0.0786   32.7217   28.6144 H     107  UNL107      0.0427
    853 H           0.6082   33.6711   30.0203 H     107  UNL107      0.0427
    854 H          -1.8867   33.4983   29.9536 H     107  UNL107      0.0241
    855 H          -1.3789   35.1817   29.7473 H     107  UNL107      0.0241
    856 H          -1.9078   34.2337   28.3433 H     107  UNL107      0.0241
    857 CL          1.6965   34.3598   32.1233 Cl    108  UNL108     -0.1257
    858 C           0.1540   33.4781   32.1233 C.3   108  UNL108      0.0198
    859 C          -1.0105   34.4459   32.1233 C.3   108  UNL108     -0.0517
    860 H           0.1294   32.8410   31.2347 H     108  UNL108      0.0427
    861 H           0.1294   32.8410   33.0118 H     108  UNL108      0.0427
    862 H          -1.9574   33.8966   32.1233 H     108  UNL108      0.0241
    863 H          -0.9932   35.0871   33.0107 H     108  UNL108      0.0241
    864 H          -0.9932   35.0871   31.2359 H     108  UNL108      0.0241
    865 CL          0.9340   34.7027   34.4193 Cl    109  UNL109     -0.1257
    866 C           0.0650   33.5899   35.4980 C.3   109  UNL109      0.0198
    867 C          -1.3570   34.0628   35.7143 C.3   109  UNL109     -0.0517
    868 H           0.0786   32.5967   35.0403 H     109  UNL109      0.0427
    869 H           0.6082   33.5461   36.4461 H     109  UNL109      0.0427
    870 H          -1.8867   33.3733   36.3795 H     109  UNL109      0.0241
    871 H          -1.3789   35.0567   36.1732 H     109  UNL109      0.0241
    872 H          -1.9078   34.1087   34.7691 H     109  UNL109      0.0241
    873 CL          4.6239    1.6647    1.0957 Cl    110  UNL110     -0.1257
    874 C           2.8690    1.5480    0.8436 C.3   110  UNL110      0.0198
    875 C           2.5345    1.6761   -0.6277 C.3   110  UNL110     -0.0517
    876 H           2.5352    0.5829    1.2351 H     110  UNL110      0.0427
    877 H           2.3913    2.3444    1.4211 H     110  UNL110      0.0427
    878 H           1.4524    1.6034   -0.7761 H     110  UNL110      0.0241
    879 H           2.8652    2.6405   -1.0270 H     110  UNL110      0.0241
    880 H           3.0088    0.8814   -1.2128 H     110  UNL110      0.0241
    881 CL          7.1497    2.3479    3.4257 Cl    111  UNL111     -0.1257
    882 C           5.6072    1.4662    3.4257 C.3   111  UNL111      0.0198
    883 C           4.4427    2.4340    3.4257 C.3   111  UNL111     -0.0517
    884 H           5.5826    0.8291    2.5371 H     111  UNL111      0.0427
    885 H           5.5826    0.8291    4.3142 H     111  UNL111      0.0427
    886 H           3.4958    1.8847    3.4257 H     111  UNL111      0.0241
    887 H           4.4600    3.0752    4.3131 H     111  UNL111      0.0241
    888 H           4.4600    3.0752    2.5383 H     111  UNL111      0.0241
    889 CL          6.1371    2.6907    5.4717 Cl    112  UNL112     -0.1257
    890 C           5.2682    1.5780    6.5503 C.3   112  UNL112      0.0198
    891 C           3.8461    2.0509    6.7667 C.3   112  UNL112     -0.0517
    892 H           5.2817    0.5848    6.0926 H     112  UNL112      0.0427
    893 H           5.8113    1.5341    7.4985 H     112  UNL112      0.0427
    894 H           3.3165    1.3613    7.4318 H     112  UNL112      0.0241
    895 H           3.8242    3.0448    7.2255 H     112  UNL112      0.0241
    896 H           3.2953    2.0967    5.8215 H     112  UNL112      0.0241
    897 CL          6.5037    3.4040    9.9140 Cl    113  UNL113     -0.1257
    898 C           5.8227    1.7629    9.9140 C.3   113  UNL113      0.0198
    899 C           4.3095    1.8162    9.9140 C.3   113  UNL113     -0.0517
    900 H           6.1930    1.2439    9.0254 H     113  UNL113      0.0427
    901 H           6.1930    1.2439   10.8025 H     113  UNL113      0.0427
    902 H           3.8964    0.8025    9.9140 H     113  UNL113      0.0241
    903 H           3.9310    2.3341   10.8014 H     113  UNL113      0.0241
    904 H           3.9310    2.3341    9.0266 H     113  UNL113      0.0241
    905 CL          6.6287    3.5290   13.2832 Cl    114  UNL114     -0.1257
    906 C           5.9477    1.8879   13.2832 C.3   114  UNL114      0.0198
    907 C           4.4345    1.9412   13.2832 C.3   114  UNL114     -0.0517
    908 H           6.3180    1.3689   12.3946 H     114  UNL114      0.0427
    909 H           6.3180    1.3689   14.1717 H     114  UNL114      0.0427
    910 H           4.0214    0.9275   13.2832 H     114  UNL114      0.0241
    911 H           4.0560    2.4591   14.1706 H     114  UNL114      0.0241
    912 H           4.0560    2.4591   12.3958 H     114  UNL114      0.0241
    913 CL          4.0290   -1.7886   17.5381 Cl    115  UNL115     -0.1257
    914 C           4.2458   -0.3935   16.4594 C.3   115  UNL115      0.0198
    915 C           5.7180   -0.1137   16.2430 C.3   115  UNL115     -0.0517
    916 H           3.7501   -0.6199   15.5112 H     115  UNL115      0.0427
    917 H           3.7501    0.4672   16.9170 H     115  UNL115      0.0427
    918 H           5.8446    0.7465   15.5779 H     115  UNL115      0.0241
    919 H           6.2214    0.1146   17.1883 H     115  UNL115      0.0241
    920 H           6.2214   -0.9710   15.7842 H     115  UNL115      0.0241
    921 CL          7.2747    2.0979   19.5216 Cl    116  UNL116     -0.1257
    922 C           5.7322    1.2162   19.5216 C.3   116  UNL116      0.0198
    923 C           4.5677    2.1840   19.5216 C.3   116  UNL116     -0.0517
    924 H           5.7076    0.5791   18.6330 H     116  UNL116      0.0427
    925 H           5.7076    0.5791   20.4101 H     116  UNL116      0.0427
    926 H           3.6208    1.6347   19.5216 H     116  UNL116      0.0241
    927 H           4.5850    2.8252   20.4090 H     116  UNL116      0.0241
    928 H           4.5850    2.8252   18.6342 H     116  UNL116      0.0241
    929 CL          6.8997    2.4729   22.7658 Cl    117  UNL117     -0.1257
    930 C           5.3572    1.5912   22.7658 C.3   117  UNL117      0.0198
    931 C           4.1927    2.5590   22.7658 C.3   117  UNL117     -0.0517
    932 H           5.3326    0.9541   21.8772 H     117  UNL117      0.0427
    933 H           5.3326    0.9541   23.6543 H     117  UNL117      0.0427
    934 H           3.2458    2.0097   22.7658 H     117  UNL117      0.0241
    935 H           4.2100    3.2002   23.6532 H     117  UNL117      0.0241
    936 H           4.2100    3.2002   21.8784 H     117  UNL117      0.0241
    937 CL          3.9665    0.6489   26.8956 Cl    118  UNL118     -0.1257
    938 C           4.1833    2.0440   25.8170 C.3   118  UNL118      0.0198
    939 C           5.6555    2.3238   25.6006 C.3   118  UNL118     -0.0517
    940 H           3.6876    1.8176   24.8687 H     118  UNL118      0.0427
    941 H           3.6876    2.9047   26.2746 H     118  UNL118      0.0427
    942 H           5.7821    3.1840   24.9355 H     118  UNL118      0.0241
    943 H           6.1589    2.5521   26.5458 H     118  UNL118      0.0241
    944 H           6.1589    1.4665   25.1417 H     118  UNL118      0.0241
    945 CL          6.8787    3.2790   28.9416 Cl    119  UNL119     -0.1257
    946 C           6.1977    1.6379   28.9416 C.3   119  UNL119      0.0198
    947 C           4.6845    1.6912   28.9416 C.3   119  UNL119     -0.0517
    948 H           6.5680    1.1189   28.0530 H     119  UNL119      0.0427
    949 H           6.5680    1.1189   29.8301 H     119  UNL119      0.0427
    950 H           4.2714    0.6775   28.9416 H     119  UNL119      0.0241
    951 H           4.3060    2.2091   29.8290 H     119  UNL119      0.0241
    952 H           4.3060    2.2091   28.0542 H     119  UNL119      0.0241
    953 CL          4.0290    0.6489   31.3001 Cl    120  UNL120     -0.1257
    954 C           4.2458    2.0439   32.3788 C.3   120  UNL120      0.0198
    955 C           5.7180    2.3238   32.5952 C.3   120  UNL120     -0.0517
    956 H           3.7501    2.9047   31.9211 H     120  UNL120      0.0427
    957 H           3.7501    1.8177   33.3270 H     120  UNL120      0.0427
    958 H           5.8446    3.1840   33.2603 H     120  UNL120      0.0241
    959 H           6.2214    1.4665   33.0540 H     120  UNL120      0.0241
    960 H           6.2214    2.5521   31.6499 H     120  UNL120      0.0241
    961 CL          4.1540    3.8308   -0.6417 Cl    121  UNL121     -0.1257
    962 C           4.3708    5.2258    0.4370 C.3   121  UNL121      0.0198
    963 C           5.8430    5.5057    0.6534 C.3   121  UNL121     -0.0517
    964 H           3.8751    6.0866   -0.0207 H     121  UNL121      0.0427
    965 H           3.8751    4.9996    1.3852 H     121  UNL121      0.0427
    966 H           5.9696    6.3659    1.3185 H     121  UNL121      0.0241
    967 H           6.3464    4.6483    1.1122 H     121  UNL121      0.0241
    968 H           6.3464    5.7339   -0.2919 H     121  UNL121      0.0241
    969 CL          6.6287    5.6862    5.0375 Cl    122  UNL122     -0.1257
    970 C           5.9477    5.2732    3.4493 C.3   122  UNL122      0.0198
    971 C           4.4345    5.2866    3.5009 C.3   122  UNL122     -0.0517
    972 H           6.3180    6.0025    2.7233 H     122  UNL122      0.0427
    973 H           6.3180    4.2826    3.1706 H     122  UNL122      0.0427
    974 H           4.0214    5.0315    2.5198 H     122  UNL122      0.0241
    975 H           4.0560    4.5581    4.2254 H     122  UNL122      0.0241
    976 H           4.0560    6.2758    3.7787 H     122  UNL122      0.0241
    977 CL          6.6287    5.6862    8.3442 Cl    123  UNL123     -0.1257
    978 C           5.9477    5.2732    6.7560 C.3   123  UNL123      0.0198
    979 C           4.4345    5.2866    6.8076 C.3   123  UNL123     -0.0517
    980 H           6.3180    6.0025    6.0300 H     123  UNL123      0.0427
    981 H           6.3180    4.2826    6.4772 H     123  UNL123      0.0427
    982 H           4.0214    5.0315    5.8264 H     123  UNL123      0.0241
    983 H           4.0560    4.5581    7.5321 H     123  UNL123      0.0241
    984 H           4.0560    6.2758    7.0854 H     123  UNL123      0.0241
    985 CL          6.4510    6.8363   10.0390 Cl    124  UNL124     -0.1257
    986 C           5.4027    5.4019   10.0390 C.3   124  UNL124      0.0198
    987 C           3.9446    5.8102   10.0390 C.3   124  UNL124     -0.0517
    988 H           5.6402    4.8102    9.1504 H     124  UNL124      0.0427
    989 H           5.6402    4.8102   10.9275 H     124  UNL124      0.0427
    990 H           3.3043    4.9223   10.0390 H     124  UNL124      0.0241
    991 H           3.6987    6.4027   10.9264 H     124  UNL124      0.0241
    992 H           3.6987    6.4027    9.1516 H     124  UNL124      0.0241
    993 CL          5.8372    5.6492   12.9083 Cl    125  UNL125     -0.1257
    994 C           4.2947    4.7813   12.7530 C.3   125  UNL125      0.0198
    995 C           3.1302    5.7340   12.9234 C.3   125  UNL125     -0.0517
    996 H           4.2701    4.3106   11.7662 H     125  UNL125      0.0427
    997 H           4.2701    3.9977   13.5155 H     125  UNL125      0.0427
    998 H           2.1833    5.1933   12.8267 H     125  UNL125      0.0241
    999 H           3.1475    6.2090   13.9098 H     125  UNL125      0.0241
   1000 H           3.1475    6.5214   12.1628 H     125  UNL125      0.0241
   1001 CL          6.8787    5.6862   14.8531 Cl    126  UNL126     -0.1257
   1002 C           6.1977    5.2732   16.4413 C.3   126  UNL126      0.0198
   1003 C           4.6845    5.2866   16.3897 C.3   126  UNL126     -0.0517
   1004 H           6.5680    4.2826   16.7200 H     126  UNL126      0.0427
   1005 H           6.5680    6.0025   17.1673 H     126  UNL126      0.0427
   1006 H           4.2714    5.0315   17.3708 H     126  UNL126      0.0241
   1007 H           4.3060    6.2758   16.1119 H     126  UNL126      0.0241
   1008 H           4.3060    4.5581   15.6652 H     126  UNL126      0.0241
   1009 CL          6.1371    6.3726   20.7198 Cl    127  UNL127     -0.1257
   1010 C           5.2682    5.2599   19.6411 C.3   127  UNL127      0.0198
   1011 C           3.8461    5.7327   19.4247 C.3   127  UNL127     -0.0517
   1012 H           5.8113    5.2160   18.6928 H     127  UNL127      0.0427
   1013 H           5.2817    4.2668   20.0987 H     127  UNL127      0.0427
   1014 H           3.3165    5.0432   18.7596 H     127  UNL127      0.0241
   1015 H           3.2953    5.7786   20.3699 H     127  UNL127      0.0241
   1016 H           3.8242    6.7267   18.9659 H     127  UNL127      0.0241
   1017 CL          7.2747    5.7798   22.7033 Cl    128  UNL128     -0.1257
   1018 C           5.7322    4.8981   22.7033 C.3   128  UNL128      0.0198
   1019 C           4.5677    5.8659   22.7033 C.3   128  UNL128     -0.0517
   1020 H           5.7076    4.2610   21.8147 H     128  UNL128      0.0427
   1021 H           5.7076    4.2610   23.5918 H     128  UNL128      0.0427
   1022 H           3.6208    5.3166   22.7033 H     128  UNL128      0.0241
   1023 H           4.5850    6.5071   23.5907 H     128  UNL128      0.0241
   1024 H           4.5850    6.5071   21.8159 H     128  UNL128      0.0241
   1025 CL          6.8787    6.8358   25.8849 Cl    129  UNL129     -0.1257
   1026 C           6.1977    5.1948   25.8849 C.3   129  UNL129      0.0198
   1027 C           4.6845    5.2481   25.8849 C.3   129  UNL129     -0.0517
   1028 H           6.5680    4.6757   24.9963 H     129  UNL129      0.0427
   1029 H           6.5680    4.6757   26.7734 H     129  UNL129      0.0427
   1030 H           4.2714    4.2344   25.8849 H     129  UNL129      0.0241
   1031 H           4.3060    5.7660   26.7723 H     129  UNL129      0.0241
   1032 H           4.3060    5.7660   24.9975 H     129  UNL129      0.0241
   1033 CL          3.9040    4.2058   28.0559 Cl    130  UNL130     -0.1257
   1034 C           4.1208    5.6008   29.1346 C.3   130  UNL130      0.0198
   1035 C           5.5930    5.8807   29.3510 C.3   130  UNL130     -0.0517
   1036 H           3.6251    6.4616   28.6769 H     130  UNL130      0.0427
   1037 H           3.6251    5.3746   30.0828 H     130  UNL130      0.0427
   1038 H           5.7196    6.7409   30.0161 H     130  UNL130      0.0241
   1039 H           6.0964    5.0233   29.8098 H     130  UNL130      0.0241
   1040 H           6.0964    6.1089   28.4058 H     130  UNL130      0.0241
   1041 CL          6.6287    6.8358   32.4358 Cl    131  UNL131     -0.1257
   1042 C           5.9477    5.1948   32.4358 C.3   131  UNL131      0.0198
   1043 C           4.4345    5.2481   32.4358 C.3   131  UNL131     -0.0517
   1044 H           6.3180    4.6757   31.5472 H     131  UNL131      0.0427
   1045 H           6.3180    4.6757   33.3243 H     131  UNL131      0.0427
   1046 H           4.0214    4.2344   32.4358 H     131  UNL131      0.0241
   1047 H           4.0560    5.7660   33.3232 H     131  UNL131      0.0241
   1048 H           4.0560    5.7660   31.5484 H     131  UNL131      0.0241
   1049 CL         -0.7904    5.3771   35.2425 Cl    132  UNL132     -0.1257
   1050 C           0.8239    6.1190   35.2425 C.3   132  UNL132      0.0198
   1051 C           1.8984    5.0521   35.2425 C.3   132  UNL132     -0.0517
   1052 H           0.9047    6.7515   34.3539 H     132  UNL132      0.0427
   1053 H           0.9047    6.7515   36.1310 H     132  UNL132      0.0427
   1054 H           2.8901    5.5156   35.2425 H     132  UNL132      0.0241
   1055 H           1.8245    4.4149   36.1299 H     132  UNL132      0.0241
   1056 H           1.8245    4.4149   34.3551 H     132  UNL132      0.0241
   1057 CL          6.8997    9.3367    0.4315 Cl    133  UNL133     -0.1257
   1058 C           5.3572    8.4550    0.4315 C.3   133  UNL133      0.0198
   1059 C           4.1927    9.4228    0.4315 C.3   133  UNL133     -0.0517
   1060 H           5.3326    7.8179   -0.4571 H     133  UNL133      0.0427
   1061 H           5.3326    7.8179    1.3200 H     133  UNL133      0.0427
   1062 H           3.2458    8.8735    0.4315 H     133  UNL133      0.0241
   1063 H           4.2100   10.0640    1.3189 H     133  UNL133      0.0241
   1064 H           4.2100   10.0640   -0.4559 H     133  UNL133      0.0241
   1065 CL          2.8521    9.2627    2.2900 Cl    134  UNL134     -0.1257
   1066 C           4.1530    9.8111    3.3687 C.3   134  UNL134      0.0198
   1067 C           5.1645    8.7054    3.5850 C.3   134  UNL134     -0.0517
   1068 H           4.6250   10.6851    2.9110 H     134  UNL134      0.0427
   1069 H           3.7001   10.1140    4.3168 H     134  UNL134      0.0427
   1070 H           5.9630    9.0495    4.2502 H     134  UNL134      0.0241
   1071 H           4.6994    7.8267    4.0439 H     134  UNL134      0.0241
   1072 H           5.6232    8.3970    2.6398 H     134  UNL134      0.0241
   1073 CL          6.1371    9.9295    5.7217 Cl    135  UNL135     -0.1257
   1074 C           5.2682    8.8168    6.8003 C.3   135  UNL135      0.0198
   1075 C           3.8461    9.2896    7.0167 C.3   135  UNL135     -0.0517
   1076 H           5.2817    7.8236    6.3426 H     135  UNL135      0.0427
   1077 H           5.8113    8.7729    7.7485 H     135  UNL135      0.0427
   1078 H           3.3165    8.6001    7.6818 H     135  UNL135      0.0241
   1079 H           3.8242   10.2836    7.4755 H     135  UNL135      0.0241
   1080 H           3.2953    9.3355    6.0715 H     135  UNL135      0.0241
   1081 CL          6.6287   10.5177    9.7890 Cl    136  UNL136     -0.1257
   1082 C           5.9477    8.8767    9.7890 C.3   136  UNL136      0.0198
   1083 C           4.4345    8.9300    9.7890 C.3   136  UNL136     -0.0517
   1084 H           6.3180    8.3576    8.9004 H     136  UNL136      0.0427
   1085 H           6.3180    8.3576   10.6775 H     136  UNL136      0.0427
   1086 H           4.0214    7.9163    9.7890 H     136  UNL136      0.0241
   1087 H           4.0560    9.4478   10.6764 H     136  UNL136      0.0241
   1088 H           4.0560    9.4478    8.9016 H     136  UNL136      0.0241
   1089 CL          6.1371    9.8045   14.4189 Cl    137  UNL137     -0.1257
   1090 C           5.2682    8.6918   13.3402 C.3   137  UNL137      0.0198
   1091 C           3.8461    9.1646   13.1239 C.3   137  UNL137     -0.0517
   1092 H           5.8113    8.6479   12.3920 H     137  UNL137      0.0427
   1093 H           5.2817    7.6986   13.7979 H     137  UNL137      0.0427
   1094 H           3.3165    8.4751   12.4587 H     137  UNL137      0.0241
   1095 H           3.2953    9.2105   14.0691 H     137  UNL137      0.0241
   1096 H           3.8242   10.1586   12.6650 H     137  UNL137      0.0241
   1097 CL          6.5760   10.0807   16.4024 Cl    138  UNL138     -0.1257
   1098 C           5.5277    8.6463   16.4024 C.3   138  UNL138      0.0198
   1099 C           4.0696    9.0546   16.4024 C.3   138  UNL138     -0.0517
   1100 H           5.7652    8.0546   15.5138 H     138  UNL138      0.0427
   1101 H           5.7652    8.0546   17.2909 H     138  UNL138      0.0427
   1102 H           3.4293    8.1667   16.4024 H     138  UNL138      0.0241
   1103 H           3.8237    9.6470   17.2898 H     138  UNL138      0.0241
   1104 H           3.8237    9.6470   15.5150 H     138  UNL138      0.0241
   1105 CL          7.0247    9.5867   19.6466 Cl    139  UNL139     -0.1257
   1106 C           5.4822    8.7050   19.6466 C.3   139  UNL139      0.0198
   1107 C           4.3177    9.6728   19.6466 C.3   139  UNL139     -0.0517
   1108 H           5.4576    8.0679   18.7580 H     139  UNL139      0.0427
   1109 H           5.4576    8.0679   20.5351 H     139  UNL139      0.0427
   1110 H           3.3708    9.1235   19.6466 H     139  UNL139      0.0241
   1111 H           4.3350   10.3140   20.5340 H     139  UNL139      0.0241
   1112 H           4.3350   10.3140   18.7592 H     139  UNL139      0.0241
   1113 CL          6.1371    9.8045   23.7764 Cl    140  UNL140     -0.1257
   1114 C           5.2682    8.6918   22.6978 C.3   140  UNL140      0.0198
   1115 C           3.8461    9.1646   22.4814 C.3   140  UNL140     -0.0517
   1116 H           5.8113    8.6479   21.7495 H     140  UNL140      0.0427
   1117 H           5.2817    7.6986   23.1554 H     140  UNL140      0.0427
   1118 H           3.3165    8.4751   21.8163 H     140  UNL140      0.0241
   1119 H           3.2953    9.2105   23.4266 H     140  UNL140      0.0241
   1120 H           3.8242   10.1586   22.0226 H     140  UNL140      0.0241
   1121 CL          6.5760   10.2057   25.9474 Cl    141  UNL141     -0.1257
   1122 C           5.5277    8.7713   25.9474 C.3   141  UNL141      0.0198
   1123 C           4.0696    9.1796   25.9474 C.3   141  UNL141     -0.0517
   1124 H           5.7652    8.1796   25.0588 H     141  UNL141      0.0427
   1125 H           5.7652    8.1796   26.8359 H     141  UNL141      0.0427
   1126 H           3.4293    8.2917   25.9474 H     141  UNL141      0.0241
   1127 H           3.8237    9.7720   26.8348 H     141  UNL141      0.0241
   1128 H           3.8237    9.7720   25.0600 H     141  UNL141      0.0241
   1129 CL          6.8787   10.3927   29.1916 Cl    142  UNL142     -0.1257
   1130 C           6.1977    8.7517   29.1916 C.3   142  UNL142      0.0198
   1131 C           4.6845    8.8050   29.1916 C.3   142  UNL142     -0.0517
   1132 H           6.5680    8.2326   28.3030 H     142  UNL142      0.0427
   1133 H           6.5680    8.2326   30.0801 H     142  UNL142      0.0427
   1134 H           4.2714    7.7913   29.1916 H     142  UNL142      0.0241
   1135 H           4.3060    9.3228   30.0790 H     142  UNL142      0.0241
   1136 H           4.3060    9.3228   28.3042 H     142  UNL142      0.0241
   1137 CL          4.0290    7.7626   33.3840 Cl    143  UNL143     -0.1257
   1138 C           4.2458    9.1577   32.3053 C.3   143  UNL143      0.0198
   1139 C           5.7180    9.4376   32.0889 C.3   143  UNL143     -0.0517
   1140 H           3.7501    8.9314   31.3571 H     143  UNL143      0.0427
   1141 H           3.7501   10.0184   32.7629 H     143  UNL143      0.0427
   1142 H           5.8446   10.2978   31.4238 H     143  UNL143      0.0241
   1143 H           6.2214    9.6658   33.0342 H     143  UNL143      0.0241
   1144 H           6.2214    8.5802   31.6301 H     143  UNL143      0.0241
   1145 CL          5.6069   11.6646    0.3490 Cl    144  UNL144     -0.1257
   1146 C           3.8942   11.9714    0.7088 C.3   144  UNL144      0.0198
   1147 C           3.5134   13.3826    0.3139 C.3   144  UNL144     -0.0517
   1148 H           3.2972   11.2394    0.1576 H     144  UNL144      0.0427
   1149 H           3.7408   11.8131    1.7800 H     144  UNL144      0.0427
   1150 H           2.4576   13.5651    0.5381 H     144  UNL144      0.0241
   1151 H           4.1067   14.1217    0.8624 H     144  UNL144      0.0241
   1152 H           3.6637   13.5487   -0.7579 H     144  UNL144      0.0241
   1153 CL          6.5960   12.7686    2.2954 Cl    145  UNL145     -0.1257
   1154 C           5.3757   11.8869    3.2389 C.3   145  UNL145      0.0198
   1155 C           4.4545   12.8547    3.9513 C.3   145  UNL145     -0.0517
   1156 H           4.8127   11.2498    2.5510 H     145  UNL145      0.0427
   1157 H           5.8997   11.2498    3.9569 H     145  UNL145      0.0427
   1158 H           3.7054   12.3054    4.5305 H     145  UNL145      0.0241
   1159 H           5.0110   13.4959    4.6427 H     145  UNL145      0.0241
   1160 H           3.9254   13.4959    3.2386 H     145  UNL145      0.0241
   1161 CL          6.6287   12.8000    8.2192 Cl    146  UNL146     -0.1257
   1162 C           5.9477   12.3870    6.6310 C.3   146  UNL146      0.0198
   1163 C           4.4345   12.4004    6.6826 C.3   146  UNL146     -0.0517
   1164 H           6.3180   13.1163    5.9050 H     146  UNL146      0.0427
   1165 H           6.3180   11.3964    6.3522 H     146  UNL146      0.0427
   1166 H           4.0214   12.1452    5.7014 H     146  UNL146      0.0241
   1167 H           4.0560   11.6719    7.4071 H     146  UNL146      0.0241
   1168 H           4.0560   13.3895    6.9604 H     146  UNL146      0.0241
   1169 CL          4.7060   14.2807   11.2372 Cl    147  UNL147     -0.1257
   1170 C           5.1963   12.9568   10.1586 C.3   147  UNL147      0.0198
   1171 C           4.0469   11.9951    9.9422 C.3   147  UNL147     -0.0517
   1172 H           5.5190   13.3959    9.2103 H     147  UNL147      0.0427
   1173 H           6.0485   12.4466   10.6162 H     147  UNL147      0.0427
   1174 H           4.3554   11.1822    9.2771 H     147  UNL147      0.0241
   1175 H           3.7186   11.5506   10.8874 H     147  UNL147      0.0241
   1176 H           3.1897   12.4986    9.4833 H     147  UNL147      0.0241
   1177 CL          6.6287   13.9496   13.0332 Cl    148  UNL148     -0.1257
   1178 C           5.9477   12.3086   13.0332 C.3   148  UNL148      0.0198
   1179 C           4.4345   12.3619   13.0332 C.3   148  UNL148     -0.0517
   1180 H           6.3180   11.7895   12.1446 H     148  UNL148      0.0427
   1181 H           6.3180   11.7895   13.9217 H     148  UNL148      0.0427
   1182 H           4.0214   11.3481   13.0332 H     148  UNL148      0.0241
   1183 H           4.0560   12.8797   13.9206 H     148  UNL148      0.0241
   1184 H           4.0560   12.8797   12.1458 H     148  UNL148      0.0241
   1185 CL          6.4741   11.9513   17.7201 Cl    149  UNL149     -0.1257
   1186 C           4.9695   12.0002   16.7766 C.3   149  UNL149      0.0198
   1187 C           4.8326   13.3294   16.0643 C.3   149  UNL149     -0.0517
   1188 H           4.9943   11.1756   16.0586 H     149  UNL149      0.0427
   1189 H           4.1344   11.8406   17.4645 H     149  UNL149      0.0427
   1190 H           3.9040   13.3530   15.4851 H     149  UNL149      0.0241
   1191 H           4.8063   14.1603   16.7769 H     149  UNL149      0.0241
   1192 H           5.6651   13.4962   15.3729 H     149  UNL149      0.0241
   1193 CL          2.8415   10.9317   19.5841 Cl    150  UNL150     -0.1257
   1194 C           3.0583   12.6951   19.5841 C.3   150  UNL150      0.0198
   1195 C           4.5305   13.0489   19.5841 C.3   150  UNL150     -0.0517
   1196 H           2.5626   13.0961   18.6955 H     150  UNL150      0.0427
   1197 H           2.5626   13.0961   20.4726 H     150  UNL150      0.0427
   1198 H           4.6571   14.1362   19.5841 H     150  UNL150      0.0241
   1199 H           5.0339   12.6513   20.4715 H     150  UNL150      0.0241
   1200 H           5.0339   12.6513   18.6967 H     150  UNL150      0.0241
   1201 CL          6.4710   13.1436   21.2605 Cl    151  UNL151     -0.1257
   1202 C           5.2507   12.2619   22.2040 C.3   151  UNL151      0.0198
   1203 C           4.3295   13.2297   22.9163 C.3   151  UNL151     -0.0517
   1204 H           4.6877   11.6248   21.5161 H     151  UNL151      0.0427
   1205 H           5.7747   11.6248   22.9220 H     151  UNL151      0.0427
   1206 H           3.5804   12.6804   23.4955 H     151  UNL151      0.0241
   1207 H           4.8860   13.8709   23.6078 H     151  UNL151      0.0241
   1208 H           3.8004   13.8709   22.2037 H     151  UNL151      0.0241
   1209 CL          6.8787   13.9496   25.8849 Cl    152  UNL152     -0.1257
   1210 C           6.1977   12.3086   25.8849 C.3   152  UNL152      0.0198
   1211 C           4.6845   12.3619   25.8849 C.3   152  UNL152     -0.0517
   1212 H           6.5680   11.7895   24.9963 H     152  UNL152      0.0427
   1213 H           6.5680   11.7895   26.7734 H     152  UNL152      0.0427
   1214 H           4.2714   11.3481   25.8849 H     152  UNL152      0.0241
   1215 H           4.3060   12.8797   26.7723 H     152  UNL152      0.0241
   1216 H           4.3060   12.8797   24.9975 H     152  UNL152      0.0241
   1217 CL          3.9040   11.0695   30.0773 Cl    153  UNL153     -0.1257
   1218 C           4.1208   12.4646   28.9986 C.3   153  UNL153      0.0198
   1219 C           5.5930   12.7444   28.7822 C.3   153  UNL153     -0.0517
   1220 H           3.6251   12.2383   28.0504 H     153  UNL153      0.0427
   1221 H           3.6251   13.3253   29.4563 H     153  UNL153      0.0427
   1222 H           5.7196   13.6046   28.1171 H     153  UNL153      0.0241
   1223 H           6.0964   12.9727   29.7275 H     153  UNL153      0.0241
   1224 H           6.0964   11.8871   28.3234 H     153  UNL153      0.0241
   1225 CL          6.3787   14.1996   32.1858 Cl    154  UNL154     -0.1257
   1226 C           5.6977   12.5586   32.1858 C.3   154  UNL154      0.0198
   1227 C           4.1845   12.6119   32.1858 C.3   154  UNL154     -0.0517
   1228 H           6.0680   12.0395   31.2972 H     154  UNL154      0.0427
   1229 H           6.0680   12.0395   33.0743 H     154  UNL154      0.0427
   1230 H           3.7714   11.5981   32.1858 H     154  UNL154      0.0241
   1231 H           3.8060   13.1297   33.0732 H     154  UNL154      0.0241
   1232 H           3.8060   13.1297   31.2984 H     154  UNL154      0.0241
   1233 CL          6.8997   13.1436   35.4300 Cl    155  UNL155     -0.1257
   1234 C           5.3572   12.2619   35.4300 C.3   155  UNL155      0.0198
   1235 C           4.1927   13.2297   35.4300 C.3   155  UNL155     -0.0517
   1236 H           5.3326   11.6248   34.5414 H     155  UNL155      0.0427
   1237 H           5.3326   11.6248   36.3185 H     155  UNL155      0.0427
   1238 H           3.2458   12.6804   35.4300 H     155  UNL155      0.0241
   1239 H           4.2100   13.8709   36.3174 H     155  UNL155      0.0241
   1240 H           4.2100   13.8709   34.5426 H     155  UNL155      0.0241
   1241 CL          6.6585   16.5754   -0.9488 Cl    156  UNL156     -0.1257
   1242 C           5.4382   15.6937   -0.0052 C.3   156  UNL156      0.0198
   1243 C           4.5170   16.6615    0.7071 C.3   156  UNL156     -0.0517
   1244 H           4.8752   15.0566   -0.6932 H     156  UNL156      0.0427
   1245 H           5.9622   15.0566    0.7127 H     156  UNL156      0.0427
   1246 H           3.7679   16.1122    1.2863 H     156  UNL156      0.0241
   1247 H           5.0735   17.3027    1.3985 H     156  UNL156      0.0241
   1248 H           3.9879   17.3027   -0.0055 H     156  UNL156      0.0241
   1249 CL          3.3605   17.7706    3.5507 Cl    157  UNL157     -0.1257
   1250 C           4.8399   16.7867    3.5507 C.3   157  UNL157      0.0198
   1251 C           4.4964   15.3120    3.5507 C.3   157  UNL157     -0.0517
   1252 H           5.4204   17.0502    2.6621 H     157  UNL157      0.0427
   1253 H           5.4204   17.0502    4.4392 H     157  UNL157      0.0427
   1254 H           5.4118   14.7116    3.5507 H     157  UNL157      0.0241
   1255 H           3.9154   15.0402    4.4381 H     157  UNL157      0.0241
   1256 H           3.9154   15.0402    2.6633 H     157  UNL157      0.0241
   1257 CL          3.5314   14.8764    7.3037 Cl    158  UNL158     -0.1257
   1258 C           4.3627   16.2715    6.5829 C.3   158  UNL158      0.0198
   1259 C           5.6598   16.5513    7.3123 C.3   158  UNL158     -0.0517
   1260 H           4.5506   16.0452    5.5295 H     158  UNL158      0.0427
   1261 H           3.6906   17.1322    6.6417 H     158  UNL158      0.0427
   1262 H           6.1668   17.4115    6.8636 H     158  UNL158      0.0241
   1263 H           5.4798   16.7796    8.3679 H     158  UNL158      0.0241
   1264 H           6.3386   15.6940    7.2572 H     158  UNL158      0.0241
   1265 CL          6.2537   17.2565    9.7890 Cl    159  UNL159     -0.1257
   1266 C           5.5727   15.6154    9.7890 C.3   159  UNL159      0.0198
   1267 C           4.0595   15.6688    9.7890 C.3   159  UNL159     -0.0517
   1268 H           5.9430   15.0964    8.9004 H     159  UNL159      0.0427
   1269 H           5.9430   15.0964   10.6775 H     159  UNL159      0.0427
   1270 H           3.6464   14.6550    9.7890 H     159  UNL159      0.0241
   1271 H           3.6810   16.1866   10.6764 H     159  UNL159      0.0241
   1272 H           3.6810   16.1866    8.9016 H     159  UNL159      0.0241
   1273 CL          3.5314   16.2865   14.7231 Cl    160  UNL160     -0.1257
   1274 C           4.3627   15.9401   13.1915 C.3   160  UNL160      0.0198
   1275 C           5.6598   16.7164   13.1043 C.3   160  UNL160     -0.0517
   1276 H           4.5506   14.8636   13.1454 H     160  UNL160      0.0427
   1277 H           3.6906   16.2136   12.3733 H     160  UNL160      0.0427
   1278 H           6.1668   16.4986   12.1588 H     160  UNL160      0.0241
   1279 H           5.4798   17.7955   13.1490 H     160  UNL160      0.0241
   1280 H           6.3386   16.4473   13.9201 H     160  UNL160      0.0241
   1281 CL          5.3372   16.5445   16.2574 Cl    161  UNL161     -0.1257
   1282 C           3.7947   15.7396   16.6172 C.3   161  UNL161      0.0198
   1283 C           2.6302   16.6231   16.2223 C.3   161  UNL161     -0.0517
   1284 H           3.7701   14.7953   16.0660 H     161  UNL161      0.0427
   1285 H           3.7701   15.5205   17.6884 H     161  UNL161      0.0427
   1286 H           1.6833   16.1216   16.4465 H     161  UNL161      0.0241
   1287 H           2.6475   17.5706   16.7708 H     161  UNL161      0.0241
   1288 H           2.6475   16.8463   15.1505 H     161  UNL161      0.0241
   1289 CL          5.7391   16.4504   17.4105 Cl    162  UNL162     -0.1257
   1290 C           5.3508   15.5687   18.9034 C.3   162  UNL162      0.0198
   1291 C           5.0577   16.5365   20.0304 C.3   162  UNL162     -0.0517
   1292 H           4.4846   14.9316   18.7035 H     162  UNL162      0.0427
   1293 H           6.2045   14.9316   19.1508 H     162  UNL162      0.0427
   1294 H           4.8194   15.9872   20.9468 H     162  UNL162      0.0241
   1295 H           5.9209   17.1777   20.2370 H     162  UNL162      0.0241
   1296 H           4.2032   17.1777   19.7903 H     162  UNL162      0.0241
   1297 CL          7.2747   16.3254   22.7033 Cl    163  UNL163     -0.1257
   1298 C           5.7322   15.4437   22.7033 C.3   163  UNL163      0.0198
   1299 C           4.5677   16.4115   22.7033 C.3   163  UNL163     -0.0517
   1300 H           5.7076   14.8066   21.8147 H     163  UNL163      0.0427
   1301 H           5.7076   14.8066   23.5918 H     163  UNL163      0.0427
   1302 H           3.6208   15.8622   22.7033 H     163  UNL163      0.0241
   1303 H           4.5850   17.0527   23.5907 H     163  UNL163      0.0241
   1304 H           4.5850   17.0527   21.8159 H     163  UNL163      0.0241
   1305 CL          6.7010   17.5070   25.8849 Cl    164  UNL164     -0.1257
   1306 C           5.6527   16.0725   25.8849 C.3   164  UNL164      0.0198
   1307 C           4.1946   16.4809   25.8849 C.3   164  UNL164     -0.0517
   1308 H           5.8902   15.4809   24.9963 H     164  UNL164      0.0427
   1309 H           5.8902   15.4809   26.7734 H     164  UNL164      0.0427
   1310 H           3.5543   15.5930   25.8849 H     164  UNL164      0.0241
   1311 H           3.9487   17.0733   26.7723 H     164  UNL164      0.0241
   1312 H           3.9487   17.0733   24.9975 H     164  UNL164      0.0241
   1313 CL          5.7390   16.5754   31.0527 Cl    165  UNL165     -0.1257
   1314 C           5.3508   15.6937   29.5598 C.3   165  UNL165      0.0198
   1315 C           5.0577   16.6615   28.4328 C.3   165  UNL165     -0.0517
   1316 H           6.2046   15.0566   29.3124 H     165  UNL165      0.0427
   1317 H           4.4847   15.0566   29.7596 H     165  UNL165      0.0427
   1318 H           4.8194   16.1122   27.5164 H     165  UNL165      0.0241
   1319 H           4.2032   17.3027   28.6729 H     165  UNL165      0.0241
   1320 H           5.9209   17.3027   28.2262 H     165  UNL165      0.0241
   1321 CL          5.4972   16.5445   33.3264 Cl    166  UNL166     -0.1257
   1322 C           4.0568   15.7396   32.6675 C.3   166  UNL166      0.0198
   1323 C           3.3771   16.6231   31.6427 C.3   166  UNL166     -0.0517
   1324 H           4.3745   14.7953   32.2164 H     166  UNL166      0.0427
   1325 H           3.3821   15.5205   33.4998 H     166  UNL166      0.0427
   1326 H           2.4909   16.1216   31.2409 H     166  UNL166      0.0241
   1327 H           3.0553   17.5706   32.0872 H     166  UNL166      0.0241
   1328 H           4.0464   16.8463   30.8054 H     166  UNL166      0.0241
   1329 CL          7.1497   16.4504   35.6175 Cl    167  UNL167     -0.1257
   1330 C           5.6072   15.5687   35.6175 C.3   167  UNL167      0.0198
   1331 C           4.4427   16.5365   35.6175 C.3   167  UNL167     -0.0517
   1332 H           5.5826   14.9316   34.7289 H     167  UNL167      0.0427
   1333 H           5.5826   14.9316   36.5060 H     167  UNL167      0.0427
   1334 H           3.4958   15.9872   35.6175 H     167  UNL167      0.0241
   1335 H           4.4600   17.1777   36.5049 H     167  UNL167      0.0241
   1336 H           4.4600   17.1777   34.7301 H     167  UNL167      0.0241
   1337 CL          5.2344   19.4395    1.9744 Cl    168  UNL168     -0.1257
   1338 C           4.4462   19.9672    0.4720 C.3   168  UNL168      0.0198
   1339 C           3.0507   19.3880    0.3731 C.3   168  UNL168     -0.0517
   1340 H           4.4137   21.0603    0.4739 H     168  UNL168      0.0427
   1341 H           5.0642   19.6366   -0.3675 H     168  UNL168      0.0427
   1342 H           2.5708   19.7167   -0.5542 H     168  UNL168      0.0241
   1343 H           3.0750   18.2933    0.3700 H     168  UNL168      0.0241
   1344 H           2.4253   19.7152    1.2102 H     168  UNL168      0.0241
   1345 CL          7.0247   20.0073    3.5507 Cl    169  UNL169     -0.1257
   1346 C           5.4822   19.1256    3.5507 C.3   169  UNL169      0.0198
   1347 C           4.3177   20.0934    3.5507 C.3   169  UNL169     -0.0517
   1348 H           5.4576   18.4885    2.6621 H     169  UNL169      0.0427
   1349 H           5.4576   18.4885    4.4392 H     169  UNL169      0.0427
   1350 H           3.3708   19.5441    3.5507 H     169  UNL169      0.0241
   1351 H           4.3350   20.7346    4.4381 H     169  UNL169      0.0241
   1352 H           4.3350   20.7346    2.6633 H     169  UNL169      0.0241
   1353 CL          6.5037   21.0634    6.6074 Cl    170  UNL170     -0.1257
   1354 C           5.8227   19.4223    6.6074 C.3   170  UNL170      0.0198
   1355 C           4.3095   19.4757    6.6074 C.3   170  UNL170     -0.0517
   1356 H           6.1930   18.9033    5.7188 H     170  UNL170      0.0427
   1357 H           6.1930   18.9033    7.4959 H     170  UNL170      0.0427
   1358 H           3.8964   18.4619    6.6074 H     170  UNL170      0.0241
   1359 H           3.9310   19.9935    7.4948 H     170  UNL170      0.0241
   1360 H           3.9310   19.9935    5.7200 H     170  UNL170      0.0241
   1361 CL          4.7060   21.6445   10.9247 Cl    171  UNL171     -0.1257
   1362 C           5.1963   20.3206    9.8461 C.3   171  UNL171      0.0198
   1363 C           4.0469   19.3589    9.6297 C.3   171  UNL171     -0.0517
   1364 H           5.5190   20.7597    8.8978 H     171  UNL171      0.0427
   1365 H           6.0485   19.8104   10.3037 H     171  UNL171      0.0427
   1366 H           4.3554   18.5460    8.9646 H     171  UNL171      0.0241
   1367 H           3.7186   18.9143   10.5749 H     171  UNL171      0.0241
   1368 H           3.1897   19.8624    9.1708 H     171  UNL171      0.0241
   1369 CL          6.6287   21.0634   13.1582 Cl    172  UNL172     -0.1257
   1370 C           5.9477   19.4223   13.1582 C.3   172  UNL172      0.0198
   1371 C           4.4345   19.4757   13.1582 C.3   172  UNL172     -0.0517
   1372 H           6.3180   18.9033   12.2696 H     172  UNL172      0.0427
   1373 H           6.3180   18.9033   14.0467 H     172  UNL172      0.0427
   1374 H           4.0214   18.4619   13.1582 H     172  UNL172      0.0241
   1375 H           4.0560   19.9935   14.0456 H     172  UNL172      0.0241
   1376 H           4.0560   19.9935   12.2708 H     172  UNL172      0.0241
   1377 CL          7.0247   20.0698   16.2774 Cl    173  UNL173     -0.1257
   1378 C           5.4822   19.1881   16.2774 C.3   173  UNL173      0.0198
   1379 C           4.3177   20.1559   16.2774 C.3   173  UNL173     -0.0517
   1380 H           5.4576   18.5510   15.3888 H     173  UNL173      0.0427
   1381 H           5.4576   18.5510   17.1659 H     173  UNL173      0.0427
   1382 H           3.3708   19.6066   16.2774 H     173  UNL173      0.0241
   1383 H           4.3350   20.7971   17.1648 H     173  UNL173      0.0241
   1384 H           4.3350   20.7971   15.3900 H     173  UNL173      0.0241
   1385 CL          6.1066   18.7744   18.1984 Cl    174  UNL174     -0.1257
   1386 C           4.7034   18.9293   19.2771 C.3   174  UNL174      0.0198
   1387 C           4.3587   20.3877   19.4934 C.3   174  UNL174     -0.0517
   1388 H           3.8654   18.3960   18.8194 H     174  UNL174      0.0427
   1389 H           4.9513   18.4441   20.2252 H     174  UNL174      0.0427
   1390 H           3.4937   20.4762   20.1586 H     174  UNL174      0.0241
   1391 H           5.1929   20.9285   19.9523 H     174  UNL174      0.0241
   1392 H           4.1084   20.8805   18.5482 H     174  UNL174      0.0241
   1393 CL          6.1371   20.4751   21.5051 Cl    175  UNL175     -0.1257
   1394 C           5.2682   19.3624   22.5837 C.3   175  UNL175      0.0198
   1395 C           3.8461   19.8353   22.8001 C.3   175  UNL175     -0.0517
   1396 H           5.2817   18.3692   22.1260 H     175  UNL175      0.0427
   1397 H           5.8113   19.3185   23.5319 H     175  UNL175      0.0427
   1398 H           3.3165   19.1457   23.4652 H     175  UNL175      0.0241
   1399 H           3.8242   20.8292   23.2589 H     175  UNL175      0.0241
   1400 H           3.2953   19.8811   21.8549 H     175  UNL175      0.0241
   1401 CL          6.8997   20.1323   25.8224 Cl    176  UNL176     -0.1257
   1402 C           5.3572   19.2506   25.8224 C.3   176  UNL176      0.0198
   1403 C           4.1927   20.2184   25.8224 C.3   176  UNL176     -0.0517
   1404 H           5.3326   18.6135   24.9338 H     176  UNL176      0.0427
   1405 H           5.3326   18.6135   26.7109 H     176  UNL176      0.0427
   1406 H           3.2458   19.6691   25.8224 H     176  UNL176      0.0241
   1407 H           4.2100   20.8596   26.7098 H     176  UNL176      0.0241
   1408 H           4.2100   20.8596   24.9350 H     176  UNL176      0.0241
   1409 CL          4.7060   21.5195   27.7434 Cl    177  UNL177     -0.1257
   1410 C           5.1963   20.1956   28.8221 C.3   177  UNL177      0.0198
   1411 C           4.0469   19.2339   29.0385 C.3   177  UNL177     -0.0517
   1412 H           6.0485   19.6853   28.3644 H     177  UNL177      0.0427
   1413 H           5.5190   20.6346   29.7703 H     177  UNL177      0.0427
   1414 H           4.3554   18.4210   29.7036 H     177  UNL177      0.0241
   1415 H           3.1897   19.7374   29.4973 H     177  UNL177      0.0241
   1416 H           3.7185   18.7893   28.0933 H     177  UNL177      0.0241
   1417 CL          6.4710   20.1323   33.5035 Cl    178  UNL178     -0.1257
   1418 C           5.2507   19.2506   32.5600 C.3   178  UNL178      0.0198
   1419 C           4.3295   20.2184   31.8477 C.3   178  UNL178     -0.0517
   1420 H           5.7748   18.6135   31.8420 H     178  UNL178      0.0427
   1421 H           4.6878   18.6135   33.2479 H     178  UNL178      0.0427
   1422 H           3.5804   19.6691   31.2685 H     178  UNL178      0.0241
   1423 H           3.8003   20.8596   32.5603 H     178  UNL178      0.0241
   1424 H           4.8860   20.8596   31.1563 H     178  UNL178      0.0241
   1425 CL          7.0247   23.7517    0.4315 Cl    179  UNL179     -0.1257
   1426 C           5.4822   22.8700    0.4315 C.3   179  UNL179      0.0198
   1427 C           4.3177   23.8378    0.4315 C.3   179  UNL179     -0.0517
   1428 H           5.4576   22.2329   -0.4571 H     179  UNL179      0.0427
   1429 H           5.4576   22.2329    1.3200 H     179  UNL179      0.0427
   1430 H           3.3708   23.2885    0.4315 H     179  UNL179      0.0241
   1431 H           4.3350   24.4790    1.3189 H     179  UNL179      0.0241
   1432 H           4.3350   24.4790   -0.4559 H     179  UNL179      0.0241
   1433 CL          6.9466   23.0442    2.8453 Cl    180  UNL180     -0.1257
   1434 C           5.5410   23.5370    3.8139 C.3   180  UNL180      0.0198
   1435 C           4.2720   22.9286    3.2553 C.3   180  UNL180     -0.0517
   1436 H           5.7087   23.2084    4.8435 H     180  UNL180      0.0427
   1437 H           5.4872   24.6292    3.7992 H     180  UNL180      0.0427
   1438 H           3.4101   23.2360    3.8562 H     180  UNL180      0.0241
   1439 H           4.0968   23.2536    2.2245 H     180  UNL180      0.0241
   1440 H           4.3179   21.8347    3.2674 H     180  UNL180      0.0241
   1441 CL          4.0290   21.9902    5.7217 Cl    181  UNL181     -0.1257
   1442 C           4.2458   23.3852    6.8003 C.3   181  UNL181      0.0198
   1443 C           5.7180   23.6651    7.0167 C.3   181  UNL181     -0.0517
   1444 H           3.7501   24.2460    6.3426 H     181  UNL181      0.0427
   1445 H           3.7501   23.1590    7.7485 H     181  UNL181      0.0427
   1446 H           5.8446   24.5253    7.6818 H     181  UNL181      0.0241
   1447 H           6.2214   22.8077    7.4755 H     181  UNL181      0.0241
   1448 H           6.2214   23.8933    6.0715 H     181  UNL181      0.0241
   1449 CL          6.6287   23.4706   11.5258 Cl    182  UNL182     -0.1257
   1450 C           5.9477   23.0576    9.9376 C.3   182  UNL182      0.0198
   1451 C           4.4345   23.0710    9.9893 C.3   182  UNL182     -0.0517
   1452 H           6.3180   23.7869    9.2116 H     182  UNL182      0.0427
   1453 H           6.3180   22.0670    9.6589 H     182  UNL182      0.0427
   1454 H           4.0214   22.8159    9.0081 H     182  UNL182      0.0241
   1455 H           4.0560   22.3425   10.7138 H     182  UNL182      0.0241
   1456 H           4.0560   24.0602   10.2671 H     182  UNL182      0.0241
   1457 CL          6.5760   24.6207   13.0332 Cl    183  UNL183     -0.1257
   1458 C           5.5277   23.1863   13.0332 C.3   183  UNL183      0.0198
   1459 C           4.0696   23.5946   13.0332 C.3   183  UNL183     -0.0517
   1460 H           5.7652   22.5946   12.1446 H     183  UNL183      0.0427
   1461 H           5.7652   22.5946   13.9217 H     183  UNL183      0.0427
   1462 H           3.4293   22.7067   13.0332 H     183  UNL183      0.0241
   1463 H           3.8237   24.1871   13.9206 H     183  UNL183      0.0241
   1464 H           3.8237   24.1871   12.1458 H     183  UNL183      0.0241
   1465 CL          5.6239   23.1310   17.3791 Cl    184  UNL184     -0.1257
   1466 C           3.8690   23.0143   17.1270 C.3   184  UNL184      0.0198
   1467 C           3.5345   23.1424   15.6557 C.3   184  UNL184     -0.0517
   1468 H           3.5352   22.0492   17.5185 H     184  UNL184      0.0427
   1469 H           3.3913   23.8107   17.7045 H     184  UNL184      0.0427
   1470 H           2.4524   23.0697   15.5073 H     184  UNL184      0.0241
   1471 H           3.8652   24.1068   15.2564 H     184  UNL184      0.0241
   1472 H           4.0088   22.3476   15.0706 H     184  UNL184      0.0241
   1473 CL          7.3997   23.5642   19.6466 Cl    185  UNL185     -0.1257
   1474 C           5.8572   22.6825   19.6466 C.3   185  UNL185      0.0198
   1475 C           4.6927   23.6503   19.6466 C.3   185  UNL185     -0.0517
   1476 H           5.8326   22.0454   18.7580 H     185  UNL185      0.0427
   1477 H           5.8326   22.0454   20.5351 H     185  UNL185      0.0427
   1478 H           3.7458   23.1010   19.6466 H     185  UNL185      0.0241
   1479 H           4.7100   24.2915   20.5340 H     185  UNL185      0.0241
   1480 H           4.7100   24.2915   18.7592 H     185  UNL185      0.0241
   1481 CL          6.8787   23.4706   24.0651 Cl    186  UNL186     -0.1257
   1482 C           6.1977   23.0576   22.4769 C.3   186  UNL186      0.0198
   1483 C           4.6845   23.0710   22.5285 C.3   186  UNL186     -0.0517
   1484 H           6.5680   23.7869   21.7509 H     186  UNL186      0.0427
   1485 H           6.5680   22.0670   22.1981 H     186  UNL186      0.0427
   1486 H           4.2714   22.8159   21.5473 H     186  UNL186      0.0241
   1487 H           4.3060   22.3425   23.2530 H     186  UNL186      0.0241
   1488 H           4.3060   24.0602   22.8063 H     186  UNL186      0.0241
   1489 CL          6.8787   24.6202   25.8849 Cl    187  UNL187     -0.1257
   1490 C           6.1977   22.9792   25.8849 C.3   187  UNL187      0.0198
   1491 C           4.6845   23.0325   25.8849 C.3   187  UNL187     -0.0517
   1492 H           6.5680   22.4601   24.9963 H     187  UNL187      0.0427
   1493 H           6.5680   22.4601   26.7734 H     187  UNL187      0.0427
   1494 H           4.2714   22.0188   25.8849 H     187  UNL187      0.0241
   1495 H           4.3060   23.5504   26.7723 H     187  UNL187      0.0241
   1496 H           4.3060   23.5504   24.9975 H     187  UNL187      0.0241
   1497 CL          6.7210   23.8142   30.4469 Cl    188  UNL188     -0.1257
   1498 C           5.5007   22.9325   29.5033 C.3   188  UNL188      0.0198
   1499 C           4.5795   23.9003   28.7910 C.3   188  UNL188     -0.0517
   1500 H           6.0248   22.2954   28.7853 H     188  UNL188      0.0427
   1501 H           4.9378   22.2954   30.1912 H     188  UNL188      0.0427
   1502 H           3.8304   23.3510   28.2118 H     188  UNL188      0.0241
   1503 H           4.0503   24.5415   29.5036 H     188  UNL188      0.0241
   1504 H           5.1360   24.5415   28.0996 H     188  UNL188      0.0241
   1505 CL          5.8372   22.9964   32.4704 Cl    189  UNL189     -0.1257
   1506 C           4.2947   23.5240   31.7640 C.3   189  UNL189      0.0198
   1507 C           3.1302   22.9448   32.5394 C.3   189  UNL189     -0.0517
   1508 H           4.2701   24.6172   31.7854 H     189  UNL189      0.0427
   1509 H           4.2701   23.1935   30.7219 H     189  UNL189      0.0427
   1510 H           2.1833   23.2736   32.0993 H     189  UNL189      0.0241
   1511 H           3.1475   21.8502   32.5220 H     189  UNL189      0.0241
   1512 H           3.1475   23.2721   33.5841 H     189  UNL189      0.0241
   1513 CL          6.5037   24.9952   35.4300 Cl    190  UNL190     -0.1257
   1514 C           5.8227   23.3542   35.4300 C.3   190  UNL190      0.0198
   1515 C           4.3095   23.4075   35.4300 C.3   190  UNL190     -0.0517
   1516 H           6.1930   22.8351   34.5414 H     190  UNL190      0.0427
   1517 H           6.1930   22.8351   36.3185 H     190  UNL190      0.0427
   1518 H           3.8964   22.3938   35.4300 H     190  UNL190      0.0241
   1519 H           3.9310   23.9254   36.3174 H     190  UNL190      0.0241
   1520 H           3.9310   23.9254   34.5426 H     190  UNL190      0.0241
   1521 CL          5.0826   26.5533    1.2741 Cl    191  UNL191     -0.1257
   1522 C           3.4302   27.0809    0.8894 C.3   191  UNL191      0.0198
   1523 C           2.9832   26.5017   -0.4363 C.3   191  UNL191     -0.0517
   1524 H           2.7733   26.7503    1.6988 H     191  UNL191      0.0427
   1525 H           3.4238   28.1740    0.8575 H     191  UNL191      0.0427
   1526 H           1.9650   26.8305   -0.6674 H     191  UNL191      0.0241
   1527 H           3.6360   26.8290   -1.2522 H     191  UNL191      0.0241
   1528 H           2.9863   25.4071   -0.4120 H     191  UNL191      0.0241
   1529 CL          6.3787   28.1771    3.5507 Cl    192  UNL192     -0.1257
   1530 C           5.6977   26.5361    3.5507 C.3   192  UNL192      0.0198
   1531 C           4.1845   26.5894    3.5507 C.3   192  UNL192     -0.0517
   1532 H           6.0680   26.0170    2.6621 H     192  UNL192      0.0427
   1533 H           6.0680   26.0170    4.4392 H     192  UNL192      0.0427
   1534 H           3.7714   25.5757    3.5507 H     192  UNL192      0.0241
   1535 H           3.8060   27.1072    4.4381 H     192  UNL192      0.0241
   1536 H           3.8060   27.1072    2.6633 H     192  UNL192      0.0241
   1537 CL          6.6287   28.1771    6.8574 Cl    193  UNL193     -0.1257
   1538 C           5.9477   26.5361    6.8574 C.3   193  UNL193      0.0198
   1539 C           4.4345   26.5894    6.8574 C.3   193  UNL193     -0.0517
   1540 H           6.3180   26.0170    5.9688 H     193  UNL193      0.0427
   1541 H           6.3180   26.0170    7.7459 H     193  UNL193      0.0427
   1542 H           4.0214   25.5757    6.8574 H     193  UNL193      0.0241
   1543 H           4.0560   27.1072    7.7448 H     193  UNL193      0.0241
   1544 H           4.0560   27.1072    5.9700 H     193  UNL193      0.0241
   1545 CL          6.1371   27.5889    8.6534 Cl    194  UNL194     -0.1257
   1546 C           5.2682   26.4762    9.7320 C.3   194  UNL194      0.0198
   1547 C           3.8461   26.9490    9.9484 C.3   194  UNL194     -0.0517
   1548 H           5.2817   25.4830    9.2743 H     194  UNL194      0.0427
   1549 H           5.8113   26.4323   10.6802 H     194  UNL194      0.0427
   1550 H           3.3165   26.2595   10.6135 H     194  UNL194      0.0241
   1551 H           3.8242   27.9430   10.4072 H     194  UNL194      0.0241
   1552 H           3.2953   26.9949    9.0032 H     194  UNL194      0.0241
   1553 CL          6.3787   28.4271   13.1582 Cl    195  UNL195     -0.1257
   1554 C           5.6977   26.7861   13.1582 C.3   195  UNL195      0.0198
   1555 C           4.1845   26.8394   13.1582 C.3   195  UNL195     -0.0517
   1556 H           6.0680   26.2670   12.2696 H     195  UNL195      0.0427
   1557 H           6.0680   26.2670   14.0467 H     195  UNL195      0.0427
   1558 H           3.7714   25.8257   13.1582 H     195  UNL195      0.0241
   1559 H           3.8060   27.3572   14.0456 H     195  UNL195      0.0241
   1560 H           3.8060   27.3572   12.2708 H     195  UNL195      0.0241
   1561 CL          6.8133   25.8541   16.3399 Cl    196  UNL196     -0.1257
   1562 C           5.0537   26.1001   16.3399 C.3   196  UNL196      0.0198
   1563 C           4.7244   27.5781   16.3399 C.3   196  UNL196     -0.0517
   1564 H           4.6445   25.6112   15.4513 H     196  UNL196      0.0427
   1565 H           4.6445   25.6112   17.2284 H     196  UNL196      0.0427
   1566 H           3.6393   27.7227   16.3399 H     196  UNL196      0.0241
   1567 H           5.1303   28.0747   17.2273 H     196  UNL196      0.0241
   1568 H           5.1303   28.0747   15.4525 H     196  UNL196      0.0241
   1569 CL          6.1371   27.5889   20.7198 Cl    197  UNL197     -0.1257
   1570 C           5.2682   26.4762   19.6411 C.3   197  UNL197      0.0198
   1571 C           3.8461   26.9490   19.4247 C.3   197  UNL197     -0.0517
   1572 H           5.8113   26.4323   18.6928 H     197  UNL197      0.0427
   1573 H           5.2817   25.4830   20.0987 H     197  UNL197      0.0427
   1574 H           3.3165   26.2595   18.7596 H     197  UNL197      0.0241
   1575 H           3.2953   26.9949   20.3699 H     197  UNL197      0.0241
   1576 H           3.8242   27.9430   18.9659 H     197  UNL197      0.0241
   1577 CL          6.8260   27.9901   22.5783 Cl    198  UNL198     -0.1257
   1578 C           5.7777   26.5557   22.5783 C.3   198  UNL198      0.0198
   1579 C           4.3196   26.9640   22.5783 C.3   198  UNL198     -0.0517
   1580 H           6.0152   25.9640   21.6897 H     198  UNL198      0.0427
   1581 H           6.0152   25.9640   23.4668 H     198  UNL198      0.0427
   1582 H           3.6793   26.0761   22.5783 H     198  UNL198      0.0241
   1583 H           4.0737   27.5564   23.4657 H     198  UNL198      0.0241
   1584 H           4.0737   27.5564   21.6909 H     198  UNL198      0.0241
   1585 CL          3.5314   25.5471   26.2687 Cl    199  UNL199     -0.1257
   1586 C           4.3627   26.9421   25.5480 C.3   199  UNL199      0.0198
   1587 C           5.6598   27.2220   26.2774 C.3   199  UNL199     -0.0517
   1588 H           4.5506   26.7158   24.4946 H     199  UNL199      0.0427
   1589 H           3.6906   27.8028   25.6068 H     199  UNL199      0.0427
   1590 H           6.1668   28.0822   25.8286 H     199  UNL199      0.0241
   1591 H           5.4798   27.4502   27.3330 H     199  UNL199      0.0241
   1592 H           6.3386   26.3646   26.2223 H     199  UNL199      0.0241
   1593 CL          5.8372   26.6783   29.5387 Cl    200  UNL200     -0.1257
   1594 C           4.2947   27.2059   28.8323 C.3   200  UNL200      0.0198
   1595 C           3.1302   26.6267   29.6077 C.3   200  UNL200     -0.0517
   1596 H           4.2701   28.2991   28.8537 H     200  UNL200      0.0427
   1597 H           4.2701   26.8754   27.7902 H     200  UNL200      0.0427
   1598 H           2.1833   26.9555   29.1676 H     200  UNL200      0.0241
   1599 H           3.1475   25.5321   29.5903 H     200  UNL200      0.0241
   1600 H           3.1475   26.9539   30.6524 H     200  UNL200      0.0241
   1601 CL          6.9383   26.0416   32.1858 Cl    201  UNL201     -0.1257
   1602 C           5.1787   26.2876   32.1858 C.3   201  UNL201      0.0198
   1603 C           4.8494   27.7656   32.1858 C.3   201  UNL201     -0.0517
   1604 H           4.7695   25.7987   31.2972 H     201  UNL201      0.0427
   1605 H           4.7695   25.7987   33.0743 H     201  UNL201      0.0427
   1606 H           3.7643   27.9102   32.1858 H     201  UNL201      0.0241
   1607 H           5.2553   28.2622   33.0732 H     201  UNL201      0.0241
   1608 H           5.2553   28.2622   31.2984 H     201  UNL201      0.0241
   1609 CL          5.8372   27.0902   35.2225 Cl    202  UNL202     -0.1257
   1610 C           4.2947   26.2852   35.5823 C.3   202  UNL202      0.0198
   1611 C           3.1302   27.1688   35.1874 C.3   202  UNL202     -0.0517
   1612 H           4.2701   25.3409   35.0311 H     202  UNL202      0.0427
   1613 H           4.2701   26.0662   36.6535 H     202  UNL202      0.0427
   1614 H           2.1833   26.6673   35.4115 H     202  UNL202      0.0241
   1615 H           3.1475   28.1163   35.7358 H     202  UNL202      0.0241
   1616 H           3.1475   27.3920   34.1156 H     202  UNL202      0.0241
   1617 CL          6.9622   30.7405    0.4315 Cl    203  UNL203     -0.1257
   1618 C           5.4197   29.8588    0.4315 C.3   203  UNL203      0.0198
   1619 C           4.2552   30.8266    0.4315 C.3   203  UNL203     -0.0517
   1620 H           5.3951   29.2217   -0.4571 H     203  UNL203      0.0427
   1621 H           5.3951   29.2217    1.3200 H     203  UNL203      0.0427
   1622 H           3.3083   30.2773    0.4315 H     203  UNL203      0.0241
   1623 H           4.2725   31.4678    1.3189 H     203  UNL203      0.0241
   1624 H           4.2725   31.4678   -0.4559 H     203  UNL203      0.0241
   1625 CL          4.1540   28.9789    4.5614 Cl    204  UNL204     -0.1257
   1626 C           4.3708   30.3740    3.4827 C.3   204  UNL204      0.0198
   1627 C           5.8430   30.6538    3.2663 C.3   204  UNL204     -0.0517
   1628 H           3.8751   30.1477    2.5344 H     204  UNL204      0.0427
   1629 H           3.8751   31.2347    3.9403 H     204  UNL204      0.0427
   1630 H           5.9696   31.5141    2.6012 H     204  UNL204      0.0241
   1631 H           6.3464   30.8821    4.2115 H     204  UNL204      0.0241
   1632 H           6.3464   29.7965    2.8075 H     204  UNL204      0.0241
   1633 CL          4.0290   29.1039    7.8680 Cl    205  UNL205     -0.1257
   1634 C           4.2458   30.4990    6.7894 C.3   205  UNL205      0.0198
   1635 C           5.7180   30.7788    6.5730 C.3   205  UNL205     -0.0517
   1636 H           3.7501   30.2727    5.8411 H     205  UNL205      0.0427
   1637 H           3.7501   31.3597    7.2470 H     205  UNL205      0.0427
   1638 H           5.8446   31.6391    5.9079 H     205  UNL205      0.0241
   1639 H           6.2214   31.0071    7.5182 H     205  UNL205      0.0241
   1640 H           6.2214   29.9215    6.1142 H     205  UNL205      0.0241
   1641 CL          7.0633   29.2235   10.0390 Cl    206  UNL206     -0.1257
   1642 C           5.3037   29.4695   10.0390 C.3   206  UNL206      0.0198
   1643 C           4.9744   30.9474   10.0390 C.3   206  UNL206     -0.0517
   1644 H           4.8945   28.9805    9.1504 H     206  UNL206      0.0427
   1645 H           4.8945   28.9805   10.9275 H     206  UNL206      0.0427
   1646 H           3.8893   31.0921   10.0390 H     206  UNL206      0.0241
   1647 H           5.3803   31.4441   10.9264 H     206  UNL206      0.0241
   1648 H           5.3803   31.4441    9.1516 H     206  UNL206      0.0241
   1649 CL          3.6540   30.2304   11.2363 Cl    207  UNL207     -0.1257
   1650 C           3.8708   30.6743   12.9430 C.3   207  UNL207      0.0198
   1651 C           5.3430   30.7633   13.2854 C.3   207  UNL207     -0.0517
   1652 H           3.3751   31.6352   13.1074 H     207  UNL207      0.0427
   1653 H           3.3751   29.9153   13.5547 H     207  UNL207      0.0427
   1654 H           5.4696   31.0370   14.3377 H     207  UNL207      0.0241
   1655 H           5.8464   29.8044   13.1239 H     207  UNL207      0.0241
   1656 H           5.8464   31.5221   12.6772 H     207  UNL207      0.0241
   1657 CL          5.6239   30.2447   17.3791 Cl    208  UNL208     -0.1257
   1658 C           3.8690   30.1281   17.1270 C.3   208  UNL208      0.0198
   1659 C           3.5345   30.2561   15.6557 C.3   208  UNL208     -0.0517
   1660 H           3.5352   29.1630   17.5185 H     208  UNL208      0.0427
   1661 H           3.3913   30.9244   17.7045 H     208  UNL208      0.0427
   1662 H           2.4524   30.1834   15.5073 H     208  UNL208      0.0241
   1663 H           3.8652   31.2206   15.2564 H     208  UNL208      0.0241
   1664 H           4.0088   29.4614   15.0706 H     208  UNL208      0.0241
   1665 CL          7.2747   30.8030   19.6466 Cl    209  UNL209     -0.1257
   1666 C           5.7322   29.9213   19.6466 C.3   209  UNL209      0.0198
   1667 C           4.5677   30.8891   19.6466 C.3   209  UNL209     -0.0517
   1668 H           5.7076   29.2842   18.7580 H     209  UNL209      0.0427
   1669 H           5.7076   29.2842   20.5351 H     209  UNL209      0.0427
   1670 H           3.6208   30.3398   19.6466 H     209  UNL209      0.0241
   1671 H           4.5850   31.5303   20.5340 H     209  UNL209      0.0241
   1672 H           4.5850   31.5303   18.7592 H     209  UNL209      0.0241
   1673 CL          6.8787   31.7340   22.5783 Cl    210  UNL210     -0.1257
   1674 C           6.1977   30.0930   22.5783 C.3   210  UNL210      0.0198
   1675 C           4.6845   30.1463   22.5783 C.3   210  UNL210     -0.0517
   1676 H           6.5680   29.5739   21.6897 H     210  UNL210      0.0427
   1677 H           6.5680   29.5739   23.4668 H     210  UNL210      0.0427
   1678 H           4.2714   29.1325   22.5783 H     210  UNL210      0.0241
   1679 H           4.3060   30.6641   23.4657 H     210  UNL210      0.0241
   1680 H           4.3060   30.6641   21.6909 H     210  UNL210      0.0241
   1681 CL          6.7537   31.9840   25.8849 Cl    211  UNL211     -0.1257
   1682 C           6.0727   30.3430   25.8849 C.3   211  UNL211      0.0198
   1683 C           4.5595   30.3963   25.8849 C.3   211  UNL211     -0.0517
   1684 H           6.4430   29.8239   24.9963 H     211  UNL211      0.0427
   1685 H           6.4430   29.8239   26.7734 H     211  UNL211      0.0427
   1686 H           4.1464   29.3825   25.8849 H     211  UNL211      0.0241
   1687 H           4.1810   30.9141   26.7723 H     211  UNL211      0.0241
   1688 H           4.1810   30.9141   24.9975 H     211  UNL211      0.0241
   1689 CL          6.7210   30.8030   30.3219 Cl    212  UNL212     -0.1257
   1690 C           5.5007   29.9213   29.3783 C.3   212  UNL212      0.0198
   1691 C           4.5795   30.8891   28.6660 C.3   212  UNL212     -0.0517
   1692 H           6.0248   29.2842   28.6603 H     212  UNL212      0.0427
   1693 H           4.9378   29.2842   30.0662 H     212  UNL212      0.0427
   1694 H           3.8304   30.3398   28.0868 H     212  UNL212      0.0241
   1695 H           4.0503   31.5303   29.3786 H     212  UNL212      0.0241
   1696 H           5.1360   31.5303   27.9746 H     212  UNL212      0.0241
   1697 CL          5.8372   30.1101   32.7204 Cl    213  UNL213     -0.1257
   1698 C           4.2947   30.6378   32.0140 C.3   213  UNL213      0.0198
   1699 C           3.1302   30.0586   32.7894 C.3   213  UNL213     -0.0517
   1700 H           4.2701   31.7310   32.0354 H     213  UNL213      0.0427
   1701 H           4.2701   30.3073   30.9719 H     213  UNL213      0.0427
   1702 H           2.1833   30.3873   32.3493 H     213  UNL213      0.0241
   1703 H           3.1475   28.9639   32.7720 H     213  UNL213      0.0241
   1704 H           3.1475   30.3858   33.8341 H     213  UNL213      0.0241
   1705 CL          6.6883   29.4735   35.4300 Cl    214  UNL214     -0.1257
   1706 C           4.9287   29.7195   35.4300 C.3   214  UNL214      0.0198
   1707 C           4.5994   31.1974   35.4300 C.3   214  UNL214     -0.0517
   1708 H           4.5195   29.2305   34.5414 H     214  UNL214      0.0427
   1709 H           4.5195   29.2305   36.3185 H     214  UNL214      0.0427
   1710 H           3.5143   31.3421   35.4300 H     214  UNL214      0.0241
   1711 H           5.0053   31.6941   36.3174 H     214  UNL214      0.0241
   1712 H           5.0053   31.6941   34.5426 H     214  UNL214      0.0241
   1713 CL          5.5826   33.1414    0.6042 Cl    215  UNL215     -0.1257
   1714 C           3.9302   33.7459    0.8511 C.3   215  UNL215      0.0198
   1715 C           3.4832   34.5697   -0.3381 C.3   215  UNL215     -0.0517
   1716 H           3.2733   32.8835    0.9950 H     215  UNL215      0.0427
   1717 H           3.9238   34.3473    1.7645 H     215  UNL215      0.0427
   1718 H           2.4650   34.9390   -0.1798 H     215  UNL215      0.0241
   1719 H           4.1360   35.4359   -0.4883 H     215  UNL215      0.0241
   1720 H           3.4863   33.9740   -1.2568 H     215  UNL215      0.0241
   1721 CL          6.9383   33.0304    3.7382 Cl    216  UNL216     -0.1257
   1722 C           5.1787   33.2764    3.7382 C.3   216  UNL216      0.0198
   1723 C           4.8494   34.7543    3.7382 C.3   216  UNL216     -0.0517
   1724 H           4.7695   32.7874    2.8496 H     216  UNL216      0.0427
   1725 H           4.7695   32.7874    4.6267 H     216  UNL216      0.0427
   1726 H           3.7643   34.8990    3.7382 H     216  UNL216      0.0241
   1727 H           5.2553   35.2510    4.6256 H     216  UNL216      0.0241
   1728 H           5.2553   35.2510    2.8508 H     216  UNL216      0.0241
   1729 CL          6.5037   35.5409    6.7324 Cl    217  UNL217     -0.1257
   1730 C           5.8227   33.8998    6.7324 C.3   217  UNL217      0.0198
   1731 C           4.3095   33.9532    6.7324 C.3   217  UNL217     -0.0517
   1732 H           6.1930   33.3808    5.8438 H     217  UNL217      0.0427
   1733 H           6.1930   33.3808    7.6209 H     217  UNL217      0.0427
   1734 H           3.8964   32.9394    6.7324 H     217  UNL217      0.0241
   1735 H           3.9310   34.4710    7.6198 H     217  UNL217      0.0241
   1736 H           3.9310   34.4710    5.8450 H     217  UNL217      0.0241
   1737 CL          6.1371   34.8277    8.6534 Cl    218  UNL218     -0.1257
   1738 C           5.2682   33.7149    9.7320 C.3   218  UNL218      0.0198
   1739 C           3.8461   34.1878    9.9484 C.3   218  UNL218     -0.0517
   1740 H           5.2817   32.7217    9.2743 H     218  UNL218      0.0427
   1741 H           5.8113   33.6711   10.6802 H     218  UNL218      0.0427
   1742 H           3.3165   33.4983   10.6135 H     218  UNL218      0.0241
   1743 H           3.8242   35.1817   10.4072 H     218  UNL218      0.0241
   1744 H           3.2953   34.2337    9.0032 H     218  UNL218      0.0241
   1745 CL          6.5037   34.2663   11.6714 Cl    219  UNL219     -0.1257
   1746 C           5.8227   33.8532   13.2596 C.3   219  UNL219      0.0198
   1747 C           4.3095   33.8667   13.2080 C.3   219  UNL219     -0.0517
   1748 H           6.1930   32.8626   13.5383 H     219  UNL219      0.0427
   1749 H           6.1930   34.5825   13.9856 H     219  UNL219      0.0427
   1750 H           3.8964   33.6115   14.1891 H     219  UNL219      0.0241
   1751 H           3.9310   34.8558   12.9302 H     219  UNL219      0.0241
   1752 H           3.9310   33.1382   12.4835 H     219  UNL219      0.0241
   1753 CL          6.8758   32.9054   16.4024 Cl    220  UNL220     -0.1257
   1754 C           5.1162   33.1514   16.4024 C.3   220  UNL220      0.0198
   1755 C           4.7869   34.6293   16.4024 C.3   220  UNL220     -0.0517
   1756 H           4.7070   32.6624   15.5138 H     220  UNL220      0.0427
   1757 H           4.7070   32.6624   17.2909 H     220  UNL220      0.0427
   1758 H           3.7018   34.7740   16.4024 H     220  UNL220      0.0241
   1759 H           5.1928   35.1260   17.2898 H     220  UNL220      0.0241
   1760 H           5.1928   35.1260   15.5150 H     220  UNL220      0.0241
   1761 CL          6.1371   34.9527   20.4698 Cl    221  UNL221     -0.1257
   1762 C           5.2682   33.8399   19.3911 C.3   221  UNL221      0.0198
   1763 C           3.8461   34.3128   19.1747 C.3   221  UNL221     -0.0517
   1764 H           5.8113   33.7961   18.4428 H     221  UNL221      0.0427
   1765 H           5.2817   32.8468   19.8487 H     221  UNL221      0.0427
   1766 H           3.3165   33.6232   18.5096 H     221  UNL221      0.0241
   1767 H           3.2953   34.3587   20.1199 H     221  UNL221      0.0241
   1768 H           3.8242   35.3067   18.7159 H     221  UNL221      0.0241
   1769 CL          6.5760   35.2914   22.7658 Cl    222  UNL222     -0.1257
   1770 C           5.5277   33.8569   22.7658 C.3   222  UNL222      0.0198
   1771 C           4.0696   34.2653   22.7658 C.3   222  UNL222     -0.0517
   1772 H           5.7652   33.2653   21.8772 H     222  UNL222      0.0427
   1773 H           5.7652   33.2653   23.6543 H     222  UNL222      0.0427
   1774 H           3.4293   33.3774   22.7658 H     222  UNL222      0.0241
   1775 H           3.8237   34.8577   23.6532 H     222  UNL222      0.0241
   1776 H           3.8237   34.8577   21.8784 H     222  UNL222      0.0241
   1777 CL          5.2060   35.7470   26.9581 Cl    223  UNL223     -0.1257
   1778 C           5.6963   34.4231   25.8795 C.3   223  UNL223      0.0198
   1779 C           4.5469   33.4614   25.6631 C.3   223  UNL223     -0.0517
   1780 H           6.0190   34.8622   24.9312 H     223  UNL223      0.0427
   1781 H           6.5485   33.9129   26.3371 H     223  UNL223      0.0427
   1782 H           4.8554   32.6485   24.9980 H     223  UNL223      0.0241
   1783 H           4.2186   33.0169   26.6083 H     223  UNL223      0.0241
   1784 H           3.6897   33.9649   25.2042 H     223  UNL223      0.0241
   1785 CL          5.5826   33.9170   28.2240 Cl    224  UNL224     -0.1257
   1786 C           3.9302   34.4447   28.6087 C.3   224  UNL224      0.0198
   1787 C           3.4832   33.8655   29.9344 C.3   224  UNL224     -0.0517
   1788 H           3.9238   35.5379   28.6407 H     224  UNL224      0.0427
   1789 H           3.2733   34.1141   27.7993 H     224  UNL224      0.0427
   1790 H           2.4650   34.1942   30.1655 H     224  UNL224      0.0241
   1791 H           3.4863   32.7708   29.9101 H     224  UNL224      0.0241
   1792 H           4.1360   34.1927   30.7503 H     224  UNL224      0.0241
   1793 CL          7.0008   33.0304   32.1233 Cl    225  UNL225     -0.1257
   1794 C           5.2412   33.2764   32.1233 C.3   225  UNL225      0.0198
   1795 C           4.9119   34.7543   32.1233 C.3   225  UNL225     -0.0517
   1796 H           4.8320   32.7874   31.2347 H     225  UNL225      0.0427
   1797 H           4.8320   32.7874   33.0118 H     225  UNL225      0.0427
   1798 H           3.8268   34.8990   32.1233 H     225  UNL225      0.0241
   1799 H           5.3178   35.2510   33.0107 H     225  UNL225      0.0241
   1800 H           5.3178   35.2510   31.2359 H     225  UNL225      0.0241
   1801 CL          8.2946    0.2739   -0.7667 Cl    226  UNL226     -0.1257
   1802 C           8.5114    1.6689    0.3120 C.3   226  UNL226      0.0198
   1803 C           9.9837    1.9488    0.5284 C.3   226  UNL226     -0.0517
   1804 H           8.0157    2.5297   -0.1457 H     226  UNL226      0.0427
   1805 H           8.0157    1.4427    1.2602 H     226  UNL226      0.0427
   1806 H          10.1103    2.8090    1.1935 H     226  UNL226      0.0241
   1807 H          10.4870    1.0915    0.9872 H     226  UNL226      0.0241
   1808 H          10.4870    2.1771   -0.4169 H     226  UNL226      0.0241
   1809 CL         12.3528    2.2229    3.4882 Cl    227  UNL227     -0.1257
   1810 C          10.8103    1.3412    3.4882 C.3   227  UNL227      0.0198
   1811 C           9.6458    2.3090    3.4882 C.3   227  UNL227     -0.0517
   1812 H          10.7857    0.7041    2.5996 H     227  UNL227      0.0427
   1813 H          10.7857    0.7041    4.3767 H     227  UNL227      0.0427
   1814 H           8.6989    1.7597    3.4882 H     227  UNL227      0.0241
   1815 H           9.6631    2.9502    4.3756 H     227  UNL227      0.0241
   1816 H           9.6631    2.9502    2.6008 H     227  UNL227      0.0241
   1817 CL         10.2857    1.0045    6.3721 Cl    228  UNL228     -0.1257
   1818 C           8.6333    1.6090    6.1252 C.3   228  UNL228      0.0198
   1819 C           8.1864    2.4328    7.3145 C.3   228  UNL228     -0.0517
   1820 H           8.6269    2.2105    5.2118 H     228  UNL228      0.0427
   1821 H           7.9764    0.7467    5.9813 H     228  UNL228      0.0427
   1822 H           7.1681    2.8021    7.1561 H     228  UNL228      0.0241
   1823 H           8.1894    1.8370    8.2331 H     228  UNL228      0.0241
   1824 H           8.8391    3.2990    7.4647 H     228  UNL228      0.0241
   1825 CL         11.9320    0.7649    9.3694 Cl    229  UNL229     -0.1257
   1826 C          10.3819    1.0896   10.1745 C.3   229  UNL229      0.0198
   1827 C           9.8227    2.4249    9.7307 C.3   229  UNL229     -0.0517
   1828 H           9.6940    0.2775    9.9225 H     229  UNL229      0.0427
   1829 H          10.5540    1.0803   11.2545 H     229  UNL229      0.0427
   1830 H           8.8681    2.6189   10.2302 H     229  UNL229      0.0241
   1831 H          10.5057    3.2435    9.9803 H     229  UNL229      0.0241
   1832 H           9.6469    2.4418    8.6501 H     229  UNL229      0.0241
   1833 CL         11.8402    2.6907   14.2314 Cl    230  UNL230     -0.1257
   1834 C          10.9713    1.5780   13.1527 C.3   230  UNL230      0.0198
   1835 C           9.5492    2.0509   12.9364 C.3   230  UNL230     -0.0517
   1836 H          11.5144    1.5342   12.2045 H     230  UNL230      0.0427
   1837 H          10.9849    0.5849   13.6104 H     230  UNL230      0.0427
   1838 H           9.0196    1.3613   12.2712 H     230  UNL230      0.0241
   1839 H           8.9984    2.0967   13.8816 H     230  UNL230      0.0241
   1840 H           9.5273    3.0448   12.4775 H     230  UNL230      0.0241
   1841 CL         10.0403    2.2545   16.3824 Cl    231  UNL231     -0.1257
   1842 C           8.4978    1.4496   16.7422 C.3   231  UNL231      0.0198
   1843 C           7.3333    2.3331   16.3473 C.3   231  UNL231     -0.0517
   1844 H           8.4732    0.5053   16.1910 H     231  UNL231      0.0427
   1845 H           8.4732    1.2305   17.8134 H     231  UNL231      0.0427
   1846 H           6.3864    1.8316   16.5715 H     231  UNL231      0.0241
   1847 H           7.3506    3.2806   16.8958 H     231  UNL231      0.0241
   1848 H           7.3506    2.5563   15.2755 H     231  UNL231      0.0241
   1849 CL         11.9241    2.2229   18.2038 Cl    232  UNL232     -0.1257
   1850 C          10.7038    1.3412   19.1473 C.3   232  UNL232      0.0198
   1851 C           9.7826    2.3090   19.8596 C.3   232  UNL232     -0.0517
   1852 H          10.1408    0.7041   18.4594 H     232  UNL232      0.0427
   1853 H          11.2279    0.7041   19.8653 H     232  UNL232      0.0427
   1854 H           9.0335    1.7597   20.4389 H     232  UNL232      0.0241
   1855 H          10.3391    2.9502   20.5511 H     232  UNL232      0.0241
   1856 H           9.2535    2.9502   19.1470 H     232  UNL232      0.0241
   1857 CL          9.1696    0.3989   23.9639 Cl    233  UNL233     -0.1257
   1858 C           9.3864    1.7940   22.8853 C.3   233  UNL233      0.0198
   1859 C          10.8587    2.0738   22.6689 C.3   233  UNL233     -0.0517
   1860 H           8.8907    1.5676   21.9370 H     233  UNL233      0.0427
   1861 H           8.8907    2.6547   23.3429 H     233  UNL233      0.0427
   1862 H          10.9853    2.9340   22.0038 H     233  UNL233      0.0241
   1863 H          11.3620    2.3021   23.6141 H     233  UNL233      0.0241
   1864 H          11.3620    1.2165   22.2101 H     233  UNL233      0.0241
   1865 CL         11.8318    3.2790   25.8849 Cl    234  UNL234     -0.1257
   1866 C          11.1509    1.6379   25.8849 C.3   234  UNL234      0.0198
   1867 C           9.6376    1.6912   25.8849 C.3   234  UNL234     -0.0517
   1868 H          11.5211    1.1189   24.9963 H     234  UNL234      0.0427
   1869 H          11.5211    1.1189   26.7734 H     234  UNL234      0.0427
   1870 H           9.2245    0.6775   25.8849 H     234  UNL234      0.0241
   1871 H           9.2591    2.2091   26.7723 H     234  UNL234      0.0241
   1872 H           9.2591    2.2091   24.9975 H     234  UNL234      0.0241
   1873 CL          8.8571    0.6489   30.0773 Cl    235  UNL235     -0.1257
   1874 C           9.0739    2.0440   28.9986 C.3   235  UNL235      0.0198
   1875 C          10.5462    2.3238   28.7822 C.3   235  UNL235     -0.0517
   1876 H           8.5782    1.8176   28.0504 H     235  UNL235      0.0427
   1877 H           8.5782    2.9047   29.4563 H     235  UNL235      0.0427
   1878 H          10.6728    3.1840   28.1171 H     235  UNL235      0.0241
   1879 H          11.0495    2.5521   29.7275 H     235  UNL235      0.0241
   1880 H          11.0495    1.4665   28.3234 H     235  UNL235      0.0241
   1881 CL         11.7068    3.2790   32.3108 Cl    236  UNL236     -0.1257
   1882 C          11.0259    1.6379   32.3108 C.3   236  UNL236      0.0198
   1883 C           9.5126    1.6912   32.3108 C.3   236  UNL236     -0.0517
   1884 H          11.3961    1.1189   31.4222 H     236  UNL236      0.0427
   1885 H          11.3961    1.1189   33.1993 H     236  UNL236      0.0427
   1886 H           9.0995    0.6775   32.3108 H     236  UNL236      0.0241
   1887 H           9.1341    2.2091   33.1982 H     236  UNL236      0.0241
   1888 H           9.1341    2.2091   31.4234 H     236  UNL236      0.0241
   1889 CL         12.3528    5.6548    1.6132 Cl    237  UNL237     -0.1257
   1890 C          10.8103    4.7731    1.6132 C.3   237  UNL237      0.0198
   1891 C           9.6458    5.7409    1.6132 C.3   237  UNL237     -0.0517
   1892 H          10.7857    4.1360    0.7246 H     237  UNL237      0.0427
   1893 H          10.7857    4.1360    2.5017 H     237  UNL237      0.0427
   1894 H           8.6989    5.1916    1.6132 H     237  UNL237      0.0241
   1895 H           9.6631    6.3821    2.5006 H     237  UNL237      0.0241
   1896 H           9.6631    6.3821    0.7258 H     237  UNL237      0.0241
   1897 CL         12.2039    4.5753    4.7949 Cl    238  UNL238     -0.1257
   1898 C          10.4443    4.8213    4.7949 C.3   238  UNL238      0.0198
   1899 C          10.1150    6.2993    4.7949 C.3   238  UNL238     -0.0517
   1900 H          10.0351    4.3324    3.9063 H     238  UNL238      0.0427
   1901 H          10.0351    4.3324    5.6834 H     238  UNL238      0.0427
   1902 H           9.0300    6.4439    4.7949 H     238  UNL238      0.0241
   1903 H          10.5209    6.7960    5.6823 H     238  UNL238      0.0241
   1904 H          10.5209    6.7960    3.9075 H     238  UNL238      0.0241
   1905 CL         10.8270    5.3466    8.8123 Cl    239  UNL239     -0.1257
   1906 C           9.0721    5.2299    9.0645 C.3   239  UNL239      0.0198
   1907 C           8.7377    5.3580   10.5357 C.3   239  UNL239     -0.0517
   1908 H           8.5945    6.0264    8.4869 H     239  UNL239      0.0427
   1909 H           8.7383    4.2649    8.6730 H     239  UNL239      0.0427
   1910 H           7.6555    5.2853   10.6841 H     239  UNL239      0.0241
   1911 H           9.2120    4.5632   11.1208 H     239  UNL239      0.0241
   1912 H           9.0683    6.3224   10.9350 H     239  UNL239      0.0241
   1913 CL         12.2903    6.0298   13.0957 Cl    240  UNL240     -0.1257
   1914 C          10.7478    5.1481   13.0957 C.3   240  UNL240      0.0198
   1915 C           9.5833    6.1159   13.0957 C.3   240  UNL240     -0.0517
   1916 H          10.7232    4.5110   12.2071 H     240  UNL240      0.0427
   1917 H          10.7232    4.5110   13.9842 H     240  UNL240      0.0427
   1918 H           8.6364    5.5666   13.0957 H     240  UNL240      0.0241
   1919 H           9.6006    6.7571   13.9831 H     240  UNL240      0.0241
   1920 H           9.6006    6.7571   12.2083 H     240  UNL240      0.0241
   1921 CL         12.2278    5.9673   16.4024 Cl    241  UNL241     -0.1257
   1922 C          10.6853    5.0856   16.4024 C.3   241  UNL241      0.0198
   1923 C           9.5208    6.0534   16.4024 C.3   241  UNL241     -0.0517
   1924 H          10.6607    4.4485   15.5138 H     241  UNL241      0.0427
   1925 H          10.6607    4.4485   17.2909 H     241  UNL241      0.0427
   1926 H           8.5739    5.5041   16.4024 H     241  UNL241      0.0241
   1927 H           9.5381    6.6946   17.2898 H     241  UNL241      0.0241
   1928 H           9.5381    6.6946   15.5150 H     241  UNL241      0.0241
   1929 CL         10.2857    4.5614   19.6943 Cl    242  UNL242     -0.1257
   1930 C           8.6333    5.1659   19.9412 C.3   242  UNL242      0.0198
   1931 C           8.1864    5.9897   18.7520 C.3   242  UNL242     -0.0517
   1932 H           7.9764    4.3035   20.0851 H     242  UNL242      0.0427
   1933 H           8.6269    5.7673   20.8546 H     242  UNL242      0.0427
   1934 H           7.1681    6.3590   18.9103 H     242  UNL242      0.0241
   1935 H           8.8391    6.8559   18.6018 H     242  UNL242      0.0241
   1936 H           8.1894    5.3939   17.8333 H     242  UNL242      0.0241
   1937 CL         11.9241    4.4241   21.9810 Cl    243  UNL243     -0.1257
   1938 C          10.7038    5.1154   23.0718 C.3   243  UNL243      0.0198
   1939 C           9.7826    6.0483   22.3144 C.3   243  UNL243     -0.0517
   1940 H          10.1408    4.2892   23.5153 H     243  UNL243      0.0427
   1941 H          11.2279    5.6499   23.8691 H     243  UNL243      0.0427
   1942 H           9.0335    6.4706   22.9918 H     243  UNL243      0.0241
   1943 H          10.3391    6.8789   21.8679 H     243  UNL243      0.0241
   1944 H           9.2535    5.5201   21.5145 H     243  UNL243      0.0241
   1945 CL          8.8571    4.2058   24.7493 Cl    244  UNL244     -0.1257
   1946 C           9.0739    5.6008   25.8279 C.3   244  UNL244      0.0198
   1947 C          10.5462    5.8807   26.0443 C.3   244  UNL244     -0.0517
   1948 H           8.5782    6.4616   25.3702 H     244  UNL244      0.0427
   1949 H           8.5782    5.3746   26.7761 H     244  UNL244      0.0427
   1950 H          10.6728    6.7409   26.7094 H     244  UNL244      0.0241
   1951 H          11.0495    5.0233   26.5031 H     244  UNL244      0.0241
   1952 H          11.0495    6.1089   25.0991 H     244  UNL244      0.0241
   1953 CL         11.8318    6.8358   29.0666 Cl    245  UNL245     -0.1257
   1954 C          11.1509    5.1948   29.0666 C.3   245  UNL245      0.0198
   1955 C           9.6376    5.2481   29.0666 C.3   245  UNL245     -0.0517
   1956 H          11.5211    4.6757   28.1780 H     245  UNL245      0.0427
   1957 H          11.5211    4.6757   29.9551 H     245  UNL245      0.0427
   1958 H           9.2245    4.2344   29.0666 H     245  UNL245      0.0241
   1959 H           9.2591    5.7660   29.9540 H     245  UNL245      0.0241
   1960 H           9.2591    5.7660   28.1792 H     245  UNL245      0.0241
   1961 CL          8.9821    4.2058   33.1965 Cl    246  UNL246     -0.1257
   1962 C           9.1989    5.6008   32.1178 C.3   246  UNL246      0.0198
   1963 C          10.6712    5.8807   31.9014 C.3   246  UNL246     -0.0517
   1964 H           8.7032    5.3745   31.1696 H     246  UNL246      0.0427
   1965 H           8.7032    6.4615   32.5754 H     246  UNL246      0.0427
   1966 H          10.7978    6.7409   31.2363 H     246  UNL246      0.0241
   1967 H          11.1745    6.1090   32.8467 H     246  UNL246      0.0241
   1968 H          11.1745    5.0233   31.4426 H     246  UNL246      0.0241
   1969 CL          9.2321    7.6376   -0.8917 Cl    247  UNL247     -0.1257
   1970 C           9.4489    9.0327    0.1870 C.3   247  UNL247      0.0198
   1971 C          10.9212    9.3126    0.4034 C.3   247  UNL247     -0.0517
   1972 H           8.9532    9.8935   -0.2707 H     247  UNL247      0.0427
   1973 H           8.9532    8.8064    1.1352 H     247  UNL247      0.0427
   1974 H          11.0478   10.1728    1.0685 H     247  UNL247      0.0241
   1975 H          11.4245    8.4552    0.8622 H     247  UNL247      0.0241
   1976 H          11.4245    9.5408   -0.5419 H     247  UNL247      0.0241
   1977 CL         11.0403    9.2061    3.2382 Cl    248  UNL248     -0.1257
   1978 C           9.4978    8.3382    3.0830 C.3   248  UNL248      0.0198
   1979 C           8.3333    9.2909    3.2534 C.3   248  UNL248     -0.0517
   1980 H           9.4732    7.8675    2.0961 H     248  UNL248      0.0427
   1981 H           9.4732    7.5546    3.8455 H     248  UNL248      0.0427
   1982 H           7.3864    8.7502    3.1567 H     248  UNL248      0.0241
   1983 H           8.3506    9.7658    4.2398 H     248  UNL248      0.0241
   1984 H           8.3506   10.0783    2.4927 H     248  UNL248      0.0241
   1985 CL         10.7857    8.7064    5.9522 Cl    249  UNL249     -0.1257
   1986 C           9.1333    9.2340    6.3369 C.3   249  UNL249      0.0198
   1987 C           8.6864    8.6548    7.6626 C.3   249  UNL249     -0.0517
   1988 H           9.1269   10.3272    6.3689 H     249  UNL249      0.0427
   1989 H           8.4764    8.9035    5.5275 H     249  UNL249      0.0427
   1990 H           7.6681    8.9836    7.8937 H     249  UNL249      0.0241
   1991 H           8.6894    7.5601    7.6383 H     249  UNL249      0.0241
   1992 H           9.3391    8.9820    8.4786 H     249  UNL249      0.0241
   1993 CL         12.0491    9.2742    8.6588 Cl    250  UNL250     -0.1257
   1994 C          10.8288    8.3925    9.6023 C.3   250  UNL250      0.0198
   1995 C           9.9076    9.3603   10.3146 C.3   250  UNL250     -0.0517
   1996 H          10.2658    7.7554    8.9144 H     250  UNL250      0.0427
   1997 H          11.3529    7.7554   10.3203 H     250  UNL250      0.0427
   1998 H           9.1585    8.8110   10.8938 H     250  UNL250      0.0241
   1999 H          10.4641   10.0015   11.0061 H     250  UNL250      0.0241
   2000 H           9.3785   10.0015    9.6020 H     250  UNL250      0.0241
   2001 CL         11.0403    8.7689   12.9361 Cl    251  UNL251     -0.1257
   2002 C           9.4978    9.2965   13.6425 C.3   251  UNL251      0.0198
   2003 C           8.3333    8.7173   12.8671 C.3   251  UNL251     -0.0517
   2004 H           9.4732    8.9659   14.6847 H     251  UNL251      0.0427
   2005 H           9.4732   10.3896   13.6212 H     251  UNL251      0.0427
   2006 H           7.3864    9.0461   13.3072 H     251  UNL251      0.0241
   2007 H           8.3506    9.0445   11.8224 H     251  UNL251      0.0241
   2008 H           8.3506    7.6227   12.8845 H     251  UNL251      0.0241
   2009 CL         12.2278    9.3367   16.4649 Cl    252  UNL252     -0.1257
   2010 C          10.6853    8.4550   16.4649 C.3   252  UNL252      0.0198
   2011 C           9.5208    9.4228   16.4649 C.3   252  UNL252     -0.0517
   2012 H          10.6607    7.8179   15.5763 H     252  UNL252      0.0427
   2013 H          10.6607    7.8179   17.3534 H     252  UNL252      0.0427
   2014 H           8.5739    8.8735   16.4649 H     252  UNL252      0.0241
   2015 H           9.5381   10.0640   17.3523 H     252  UNL252      0.0241
   2016 H           9.5381   10.0640   15.5775 H     252  UNL252      0.0241
   2017 CL         12.0491    9.3367   20.9643 Cl    253  UNL253     -0.1257
   2018 C          10.8288    8.4550   20.0208 C.3   253  UNL253      0.0198
   2019 C           9.9076    9.4228   19.3085 C.3   253  UNL253     -0.0517
   2020 H          11.3529    7.8179   19.3028 H     253  UNL253      0.0427
   2021 H          10.2659    7.8179   20.7087 H     253  UNL253      0.0427
   2022 H           9.1585    8.8735   18.7293 H     253  UNL253      0.0241
   2023 H           9.3785   10.0640   20.0211 H     253  UNL253      0.0241
   2024 H          10.4641   10.0640   18.6171 H     253  UNL253      0.0241
   2025 CL         10.7857    8.8939   23.5459 Cl    254  UNL254     -0.1257
   2026 C           9.1333    9.4215   23.1612 C.3   254  UNL254      0.0198
   2027 C           8.6864    8.8423   21.8355 C.3   254  UNL254     -0.0517
   2028 H           8.4764    9.0909   23.9706 H     254  UNL254      0.0427
   2029 H           9.1269   10.5146   23.1292 H     254  UNL254      0.0427
   2030 H           7.6681    9.1711   21.6044 H     254  UNL254      0.0241
   2031 H           9.3391    9.1695   21.0195 H     254  UNL254      0.0241
   2032 H           8.6894    7.7477   21.8598 H     254  UNL254      0.0241
   2033 CL         11.8318   10.3927   26.0099 Cl    255  UNL255     -0.1257
   2034 C          11.1509    8.7517   26.0099 C.3   255  UNL255      0.0198
   2035 C           9.6376    8.8050   26.0099 C.3   255  UNL255     -0.0517
   2036 H          11.5211    8.2326   25.1213 H     255  UNL255      0.0427
   2037 H          11.5211    8.2326   26.8984 H     255  UNL255      0.0427
   2038 H           9.2245    7.7913   26.0099 H     255  UNL255      0.0241
   2039 H           9.2591    9.3228   26.8973 H     255  UNL255      0.0241
   2040 H           9.2591    9.3228   25.1225 H     255  UNL255      0.0241
   2041 CL          8.9821    7.6376   30.2023 Cl    256  UNL256     -0.1257
   2042 C           9.1989    9.0327   29.1236 C.3   256  UNL256      0.0198
   2043 C          10.6712    9.3126   28.9072 C.3   256  UNL256     -0.0517
   2044 H           8.7032    8.8064   28.1754 H     256  UNL256      0.0427
   2045 H           8.7032    9.8934   29.5813 H     256  UNL256      0.0427
   2046 H          10.7978   10.1728   28.2421 H     256  UNL256      0.0241
   2047 H          11.1745    9.5408   29.8525 H     256  UNL256      0.0241
   2048 H          11.1745    8.4552   28.4484 H     256  UNL256      0.0241
   2049 CL         11.8318    9.2431   33.9226 Cl    257  UNL257     -0.1257
   2050 C          11.1509    8.8301   32.3344 C.3   257  UNL257      0.0198
   2051 C           9.6376    8.8435   32.3860 C.3   257  UNL257     -0.0517
   2052 H          11.5211    9.5594   31.6084 H     257  UNL257      0.0427
   2053 H          11.5211    7.8395   32.0557 H     257  UNL257      0.0427
   2054 H           9.2245    8.5883   31.4049 H     257  UNL257      0.0241
   2055 H           9.2591    8.1150   33.1105 H     257  UNL257      0.0241
   2056 H           9.2591    9.8327   32.6638 H     257  UNL257      0.0241
   2057 CL         11.0360    6.9598   35.4925 Cl    258  UNL258     -0.1257
   2058 C           9.7944    8.2307   35.4925 C.3   258  UNL258      0.0198
   2059 C          10.4380    9.6013   35.4925 C.3   258  UNL258     -0.0517
   2060 H           9.1716    8.0942   34.6039 H     258  UNL258      0.0427
   2061 H           9.1716    8.0942   36.3810 H     258  UNL258      0.0427
   2062 H           9.6680   10.3795   35.4925 H     258  UNL258      0.0241
   2063 H          11.0629    9.7460   36.3799 H     258  UNL258      0.0241
   2064 H          11.0629    9.7460   34.6051 H     258  UNL258      0.0241
   2065 CL         12.1028   13.1436    0.4940 Cl    259  UNL259     -0.1257
   2066 C          10.5603   12.2619    0.4940 C.3   259  UNL259      0.0198
   2067 C           9.3958   13.2297    0.4940 C.3   259  UNL259     -0.0517
   2068 H          10.5357   11.6248   -0.3946 H     259  UNL259      0.0427
   2069 H          10.5357   11.6248    1.3825 H     259  UNL259      0.0427
   2070 H           8.4489   12.6804    0.4940 H     259  UNL259      0.0241
   2071 H           9.4131   13.8709    1.3814 H     259  UNL259      0.0241
   2072 H           9.4131   13.8709   -0.3934 H     259  UNL259      0.0241
   2073 CL          8.8571   11.0695    4.6864 Cl    260  UNL260     -0.1257
   2074 C           9.0739   12.4646    3.6077 C.3   260  UNL260      0.0198
   2075 C          10.5462   12.7444    3.3913 C.3   260  UNL260     -0.0517
   2076 H           8.5782   12.2383    2.6594 H     260  UNL260      0.0427
   2077 H           8.5782   13.3253    4.0653 H     260  UNL260      0.0427
   2078 H          10.6728   13.6046    2.7262 H     260  UNL260      0.0241
   2079 H          11.0495   12.9727    4.3365 H     260  UNL260      0.0241
   2080 H          11.0495   11.8871    2.9325 H     260  UNL260      0.0241
   2081 CL         11.9162   11.2279    7.3635 Cl    261  UNL261     -0.1257
   2082 C          11.0258   12.3784    6.3436 C.3   261  UNL261      0.0198
   2083 C           9.7425   12.8072    7.0232 C.3   261  UNL261     -0.0517
   2084 H          11.6747   13.2395    6.1605 H     261  UNL261      0.0427
   2085 H          10.8148   11.8895    5.3884 H     261  UNL261      0.0427
   2086 H           9.1989   13.5156    6.3899 H     261  UNL261      0.0241
   2087 H           9.0868   11.9502    7.2093 H     261  UNL261      0.0241
   2088 H           9.9457   13.2984    7.9804 H     261  UNL261      0.0241
   2089 CL         11.0403   12.5853   10.5161 Cl    262  UNL262     -0.1257
   2090 C           9.4978   12.4686    9.6422 C.3   262  UNL262      0.0198
   2091 C           8.3333   12.5967   10.6015 C.3   262  UNL262     -0.0517
   2092 H           9.4732   13.2651    8.8931 H     262  UNL262      0.0427
   2093 H           9.4732   11.5036    9.1283 H     262  UNL262      0.0427
   2094 H           7.3864   12.5240   10.0570 H     262  UNL262      0.0241
   2095 H           8.3506   11.8020   11.3545 H     262  UNL262      0.0241
   2096 H           8.3506   13.5612   11.1196 H     262  UNL262      0.0241
   2097 CL         12.2903   12.8311   13.1582 Cl    263  UNL263     -0.1257
   2098 C          10.7478   11.9494   13.1582 C.3   263  UNL263      0.0198
   2099 C           9.5833   12.9172   13.1582 C.3   263  UNL263     -0.0517
   2100 H          10.7232   11.3123   12.2696 H     263  UNL263      0.0427
   2101 H          10.7232   11.3123   14.0467 H     263  UNL263      0.0427
   2102 H           8.6364   12.3679   13.1582 H     263  UNL263      0.0241
   2103 H           9.6006   13.5584   14.0456 H     263  UNL263      0.0241
   2104 H           9.6006   13.5584   12.2708 H     263  UNL263      0.0241
   2105 CL          7.4927   12.6946   17.4131 Cl    264  UNL264     -0.1257
   2106 C           8.7936   13.2430   16.3344 C.3   264  UNL264      0.0198
   2107 C           9.8052   12.1373   16.1180 C.3   264  UNL264     -0.0517
   2108 H           8.3407   13.5459   15.3862 H     264  UNL264      0.0427
   2109 H           9.2656   14.1169   16.7920 H     264  UNL264      0.0427
   2110 H          10.6036   12.4814   15.4529 H     264  UNL264      0.0241
   2111 H          10.2638   11.8289   17.0633 H     264  UNL264      0.0241
   2112 H           9.3401   11.2586   15.6592 H     264  UNL264      0.0241
   2113 CL         10.5403   12.4507   19.8687 Cl    265  UNL265     -0.1257
   2114 C           8.9978   12.9784   19.1623 C.3   265  UNL265      0.0198
   2115 C           7.8333   12.3992   19.9376 C.3   265  UNL265     -0.0517
   2116 H           8.9732   14.0716   19.1837 H     265  UNL265      0.0427
   2117 H           8.9732   12.6478   18.1201 H     265  UNL265      0.0427
   2118 H           6.8864   12.7279   19.4976 H     265  UNL265      0.0241
   2119 H           7.8506   11.3045   19.9203 H     265  UNL265      0.0241
   2120 H           7.8506   12.7264   20.9824 H     265  UNL265      0.0241
   2121 CL         12.3528   12.8311   22.7033 Cl    266  UNL266     -0.1257
   2122 C          10.8103   11.9494   22.7033 C.3   266  UNL266      0.0198
   2123 C           9.6458   12.9172   22.7033 C.3   266  UNL266     -0.0517
   2124 H          10.7857   11.3123   21.8147 H     266  UNL266      0.0427
   2125 H          10.7857   11.3123   23.5918 H     266  UNL266      0.0427
   2126 H           8.6989   12.3679   22.7033 H     266  UNL266      0.0241
   2127 H           9.6631   13.5584   23.5907 H     266  UNL266      0.0241
   2128 H           9.6631   13.5584   21.8159 H     266  UNL266      0.0241
   2129 CL          8.9821   11.1945   26.8331 Cl    267  UNL267     -0.1257
   2130 C           9.1989   12.5896   25.7545 C.3   267  UNL267      0.0198
   2131 C          10.6712   12.8694   25.5381 C.3   267  UNL267     -0.0517
   2132 H           8.7032   12.3633   24.8062 H     267  UNL267      0.0427
   2133 H           8.7032   13.4503   26.2121 H     267  UNL267      0.0427
   2134 H          10.7978   13.7296   24.8730 H     267  UNL267      0.0241
   2135 H          11.1745   13.0977   26.4833 H     267  UNL267      0.0241
   2136 H          11.1745   12.0121   25.0792 H     267  UNL267      0.0241
   2137 CL         12.1028   13.1436   29.0041 Cl    268  UNL268     -0.1257
   2138 C          10.5603   12.2619   29.0041 C.3   268  UNL268      0.0198
   2139 C           9.3958   13.2297   29.0041 C.3   268  UNL268     -0.0517
   2140 H          10.5357   11.6248   28.1155 H     268  UNL268      0.0427
   2141 H          10.5357   11.6248   29.8926 H     268  UNL268      0.0427
   2142 H           8.4489   12.6804   29.0041 H     268  UNL268      0.0241
   2143 H           9.4131   13.8709   29.8915 H     268  UNL268      0.0241
   2144 H           9.4131   13.8709   28.1167 H     268  UNL268      0.0241
   2145 CL          9.4821   11.1320   33.1965 Cl    269  UNL269     -0.1257
   2146 C           9.6989   12.5271   32.1178 C.3   269  UNL269      0.0198
   2147 C          11.1712   12.8069   31.9014 C.3   269  UNL269     -0.0517
   2148 H           9.2032   12.3008   31.1696 H     269  UNL269      0.0427
   2149 H           9.2032   13.3878   32.5754 H     269  UNL269      0.0427
   2150 H          11.2978   13.6671   31.2363 H     269  UNL269      0.0241
   2151 H          11.6745   13.0352   32.8467 H     269  UNL269      0.0241
   2152 H          11.6745   11.9496   31.4426 H     269  UNL269      0.0241
   2153 CL         10.6571   15.7334    4.0637 Cl    270  UNL270     -0.1257
   2154 C          10.4782   15.6130    2.3001 C.3   270  UNL270      0.0198
   2155 C           9.7320   16.8144    1.7591 C.3   270  UNL270     -0.0517
   2156 H          11.4787   15.5482    1.8630 H     270  UNL270      0.0427
   2157 H           9.9384   14.6883    2.0780 H     270  UNL270      0.0427
   2158 H           9.6252   16.7341    0.6726 H     270  UNL270      0.0241
   2159 H           8.7287   16.8857    2.1917 H     270  UNL270      0.0241
   2160 H          10.2669   17.7446    1.9771 H     270  UNL270      0.0241
   2161 CL         10.0403   16.4195    4.9398 Cl    271  UNL271     -0.1257
   2162 C           8.4978   15.6146    4.5800 C.3   271  UNL271      0.0198
   2163 C           7.3333   16.4981    4.9750 C.3   271  UNL271     -0.0517
   2164 H           8.4732   15.3956    3.5088 H     271  UNL271      0.0427
   2165 H           8.4732   14.6703    5.1312 H     271  UNL271      0.0427
   2166 H           6.3864   15.9966    4.7508 H     271  UNL271      0.0241
   2167 H           7.3506   16.7213    6.0468 H     271  UNL271      0.0241
   2168 H           7.3506   17.4456    4.4265 H     271  UNL271      0.0241
   2169 CL         11.4329   17.2292    9.1537 Cl    272  UNL272     -0.1257
   2170 C          11.1552   16.1328    7.7835 C.3   272  UNL272      0.0198
   2171 C           9.6716   15.9535    7.5395 C.3   272  UNL272     -0.0517
   2172 H          11.6444   16.5610    6.9040 H     272  UNL272      0.0427
   2173 H          11.6290   15.1750    8.0162 H     272  UNL272      0.0427
   2174 H           9.5074   15.2772    6.6945 H     272  UNL272      0.0241
   2175 H           9.1747   15.5243    8.4158 H     272  UNL272      0.0241
   2176 H           9.1901   16.9085    7.3050 H     272  UNL272      0.0241
   2177 CL         10.5403   16.5012   11.1909 Cl    273  UNL273     -0.1257
   2178 C           8.9978   15.8037   11.7303 C.3   273  UNL273      0.0198
   2179 C           7.8333   16.5693   11.1383 C.3   273  UNL273     -0.0517
   2180 H           8.9732   14.7562   11.4170 H     273  UNL273      0.0427
   2181 H           8.9732   15.8432   12.8229 H     273  UNL273      0.0427
   2182 H           6.8864   16.1348   11.4743 H     273  UNL273      0.0241
   2183 H           7.8506   17.6194   11.4481 H     273  UNL273      0.0241
   2184 H           7.8506   16.5338   10.0440 H     273  UNL273      0.0241
   2185 CL         12.0491   16.4504   13.3346 Cl    274  UNL274     -0.1257
   2186 C          10.8288   15.5687   14.2782 C.3   274  UNL274      0.0198
   2187 C           9.9076   16.5365   14.9905 C.3   274  UNL274     -0.0517
   2188 H          10.2658   14.9316   13.5902 H     274  UNL274      0.0427
   2189 H          11.3529   14.9316   14.9961 H     274  UNL274      0.0427
   2190 H           9.1585   15.9872   15.5697 H     274  UNL274      0.0241
   2191 H          10.4641   17.1777   15.6819 H     274  UNL274      0.0241
   2192 H           9.3785   17.1777   14.2779 H     274  UNL274      0.0241
   2193 CL         11.8772   17.4478   17.4889 Cl    275  UNL275     -0.1257
   2194 C          11.0836   15.9524   16.9495 C.3   275  UNL275      0.0198
   2195 C           9.6940   15.8458   17.5415 C.3   275  UNL275     -0.0517
   2196 H          11.0400   15.9687   15.8569 H     275  UNL275      0.0427
   2197 H          11.7049   15.1087   17.2627 H     275  UNL275      0.0427
   2198 H           9.2107   14.9229   17.2055 H     275  UNL275      0.0241
   2199 H           9.7295   15.8283   18.6358 H     275  UNL275      0.0241
   2200 H           9.0654   16.6871   17.2317 H     275  UNL275      0.0241
   2201 CL         12.4778   16.4504   20.7033 Cl    276  UNL276     -0.1257
   2202 C          10.9353   15.5687   20.7033 C.3   276  UNL276      0.0198
   2203 C           9.7708   16.5365   20.7033 C.3   276  UNL276     -0.0517
   2204 H          10.9107   14.9316   19.8147 H     276  UNL276      0.0427
   2205 H          10.9107   14.9316   21.5918 H     276  UNL276      0.0427
   2206 H           8.8239   15.9872   20.7033 H     276  UNL276      0.0241
   2207 H           9.7881   17.1777   21.5907 H     276  UNL276      0.0241
   2208 H           9.7881   17.1777   19.8159 H     276  UNL276      0.0241
   2209 CL         11.8318   16.4819   22.3981 Cl    277  UNL277     -0.1257
   2210 C          11.1509   16.0688   23.9863 C.3   277  UNL277      0.0198
   2211 C           9.6376   16.0823   23.9347 C.3   277  UNL277     -0.0517
   2212 H          11.5211   15.0782   24.2650 H     277  UNL277      0.0427
   2213 H          11.5211   16.7981   24.7123 H     277  UNL277      0.0427
   2214 H           9.2245   15.8271   24.9158 H     277  UNL277      0.0241
   2215 H           9.2591   17.0714   23.6569 H     277  UNL277      0.0241
   2216 H           9.2591   15.3538   23.2102 H     277  UNL277      0.0241
   2217 CL         12.1028   16.3879   27.0666 Cl    278  UNL278     -0.1257
   2218 C          10.5603   15.5062   27.0666 C.3   278  UNL278      0.0198
   2219 C           9.3958   16.4740   27.0666 C.3   278  UNL278     -0.0517
   2220 H          10.5357   14.8691   26.1780 H     278  UNL278      0.0427
   2221 H          10.5357   14.8691   27.9551 H     278  UNL278      0.0427
   2222 H           8.4489   15.9247   27.0666 H     278  UNL278      0.0241
   2223 H           9.4131   17.1152   27.9540 H     278  UNL278      0.0241
   2224 H           9.4131   17.1152   26.1792 H     278  UNL278      0.0241
   2225 CL         12.4778   16.5754   30.2483 Cl    279  UNL279     -0.1257
   2226 C          10.9353   15.6937   30.2483 C.3   279  UNL279      0.0198
   2227 C           9.7708   16.6615   30.2483 C.3   279  UNL279     -0.0517
   2228 H          10.9107   15.0566   29.3597 H     279  UNL279      0.0427
   2229 H          10.9107   15.0566   31.1368 H     279  UNL279      0.0427
   2230 H           8.8239   16.1122   30.2483 H     279  UNL279      0.0241
   2231 H           9.7881   17.3027   31.1357 H     279  UNL279      0.0241
   2232 H           9.7881   17.3027   29.3609 H     279  UNL279      0.0241
   2233 CL         11.7991   16.5129   32.4247 Cl    280  UNL280     -0.1257
   2234 C          10.5788   15.6312   33.3682 C.3   280  UNL280      0.0198
   2235 C           9.6576   16.5990   34.0806 C.3   280  UNL280     -0.0517
   2236 H          10.0158   14.9941   32.6803 H     280  UNL280      0.0427
   2237 H          11.1029   14.9941   34.0862 H     280  UNL280      0.0427
   2238 H           8.9085   16.0497   34.6598 H     280  UNL280      0.0241
   2239 H          10.2141   17.2402   34.7720 H     280  UNL280      0.0241
   2240 H           9.1285   17.2402   33.3679 H     280  UNL280      0.0241
   2241 CL         12.1028   20.2573    0.4315 Cl    281  UNL281     -0.1257
   2242 C          10.5603   19.3756    0.4315 C.3   281  UNL281      0.0198
   2243 C           9.3958   20.3434    0.4315 C.3   281  UNL281     -0.0517
   2244 H          10.5357   18.7385   -0.4571 H     281  UNL281      0.0427
   2245 H          10.5357   18.7385    1.3200 H     281  UNL281      0.0427
   2246 H           8.4489   19.7941    0.4315 H     281  UNL281      0.0241
   2247 H           9.4131   20.9846    1.3189 H     281  UNL281      0.0241
   2248 H           9.4131   20.9846   -0.4559 H     281  UNL281      0.0241
   2249 CL         11.4652   20.4751    4.6864 Cl    282  UNL282     -0.1257
   2250 C          10.5963   19.3624    3.6077 C.3   282  UNL282      0.0198
   2251 C           9.1742   19.8353    3.3913 C.3   282  UNL282     -0.0517
   2252 H          11.1394   19.3186    2.6594 H     282  UNL282      0.0427
   2253 H          10.6099   18.3693    4.0653 H     282  UNL282      0.0427
   2254 H           8.6446   19.1457    2.7262 H     282  UNL282      0.0241
   2255 H           8.6234   19.8811    4.3365 H     282  UNL282      0.0241
   2256 H           9.1523   20.8292    2.9325 H     282  UNL282      0.0241
   2257 CL          8.4846   19.0964    5.5167 Cl    283  UNL283     -0.1257
   2258 C           9.3158   20.1451    6.6854 C.3   283  UNL283      0.0198
   2259 C          10.6129   19.5097    7.1399 C.3   283  UNL283     -0.0517
   2260 H           9.5037   21.1076    6.2013 H     283  UNL283      0.0427
   2261 H           8.6438   20.3048    7.5333 H     283  UNL283      0.0427
   2262 H          11.1199   20.1604    7.8594 H     283  UNL283      0.0241
   2263 H          10.4329   18.5454    7.6265 H     283  UNL283      0.0241
   2264 H          11.2918   19.3472    6.2963 H     283  UNL283      0.0241
   2265 CL         10.7416   20.8017   10.3236 Cl    284  UNL284     -0.1257
   2266 C           9.1986   20.2756    9.6172 C.3   284  UNL284      0.0198
   2267 C           8.6317   19.1051   10.3926 C.3   284  UNL284     -0.0517
   2268 H           8.5105   21.1253    9.6386 H     284  UNL284      0.0427
   2269 H           9.3813   19.9990    8.5751 H     284  UNL284      0.0427
   2270 H           7.6815   18.7859    9.9525 H     284  UNL284      0.0241
   2271 H           9.3149   18.2496   10.3752 H     284  UNL284      0.0241
   2272 H           8.4452   19.3745   11.4374 H     284  UNL284      0.0241
   2273 CL         12.3528   20.0698   13.0332 Cl    285  UNL285     -0.1257
   2274 C          10.8103   19.1881   13.0332 C.3   285  UNL285      0.0198
   2275 C           9.6458   20.1559   13.0332 C.3   285  UNL285     -0.0517
   2276 H          10.7857   18.5510   12.1446 H     285  UNL285      0.0427
   2277 H          10.7857   18.5510   13.9217 H     285  UNL285      0.0427
   2278 H           8.6989   19.6066   13.0332 H     285  UNL285      0.0241
   2279 H           9.6631   20.7971   13.9206 H     285  UNL285      0.0241
   2280 H           9.6631   20.7971   12.1458 H     285  UNL285      0.0241
   2281 CL          8.8596   18.3083   16.7237 Cl    286  UNL286     -0.1257
   2282 C           9.6908   19.7034   16.0029 C.3   286  UNL286      0.0198
   2283 C          10.9879   19.9832   16.7323 C.3   286  UNL286     -0.0517
   2284 H           9.8787   19.4770   14.9496 H     286  UNL286      0.0427
   2285 H           9.0188   20.5641   16.0618 H     286  UNL286      0.0427
   2286 H          11.4949   20.8434   16.2836 H     286  UNL286      0.0241
   2287 H          10.8079   20.2115   17.7880 H     286  UNL286      0.0241
   2288 H          11.6668   19.1259   16.6772 H     286  UNL286      0.0241
   2289 CL          9.9916   20.7392   19.8687 Cl    287  UNL287     -0.1257
   2290 C           8.4486   20.2131   19.1623 C.3   287  UNL287      0.0198
   2291 C           7.8817   19.0426   19.9376 C.3   287  UNL287     -0.0517
   2292 H           7.7605   21.0628   19.1837 H     287  UNL287      0.0427
   2293 H           8.6313   19.9365   18.1201 H     287  UNL287      0.0427
   2294 H           6.9315   18.7234   19.4976 H     287  UNL287      0.0241
   2295 H           8.5649   18.1871   19.9203 H     287  UNL287      0.0241
   2296 H           7.6952   19.3120   20.9824 H     287  UNL287      0.0241
   2297 CL         11.0403   19.3770   23.0503 Cl    288  UNL288     -0.1257
   2298 C           9.4978   19.9047   22.3440 C.3   288  UNL288      0.0198
   2299 C           8.3333   19.3255   23.1193 C.3   288  UNL288     -0.0517
   2300 H           9.4732   20.9978   22.3653 H     288  UNL288      0.0427
   2301 H           9.4732   19.5741   21.3018 H     288  UNL288      0.0427
   2302 H           7.3864   19.6542   22.6792 H     288  UNL288      0.0241
   2303 H           8.3506   18.2308   23.1019 H     288  UNL288      0.0241
   2304 H           8.3506   19.6527   24.1641 H     288  UNL288      0.0241
   2305 CL         11.8318   19.9137   27.3717 Cl    289  UNL289     -0.1257
   2306 C          11.1509   19.5007   25.7835 C.3   289  UNL289      0.0198
   2307 C           9.6376   19.5141   25.8351 C.3   289  UNL289     -0.0517
   2308 H          11.5211   20.2301   25.0575 H     289  UNL289      0.0427
   2309 H          11.5211   18.5102   25.5048 H     289  UNL289      0.0427
   2310 H           9.2245   19.2590   24.8540 H     289  UNL289      0.0241
   2311 H           9.2591   18.7856   26.5597 H     289  UNL289      0.0241
   2312 H           9.2591   20.5033   26.1130 H     289  UNL289      0.0241
   2313 CL          9.7902   20.5834   28.2240 Cl    290  UNL290     -0.1257
   2314 C           8.1603   19.9901   28.6087 C.3   290  UNL290      0.0198
   2315 C           8.1610   19.2585   29.9344 C.3   290  UNL290     -0.0517
   2316 H           7.4866   20.8510   28.6407 H     290  UNL290      0.0427
   2317 H           7.8428   19.3268   27.7993 H     290  UNL290      0.0427
   2318 H           7.1543   18.8957   30.1655 H     290  UNL290      0.0241
   2319 H           8.8330   18.3944   29.9101 H     290  UNL290      0.0241
   2320 H           8.4772   19.9167   30.7503 H     290  UNL290      0.0241
   2321 CL         12.4778   20.1323   32.1858 Cl    291  UNL291     -0.1257
   2322 C          10.9353   19.2506   32.1858 C.3   291  UNL291      0.0198
   2323 C           9.7708   20.2184   32.1858 C.3   291  UNL291     -0.0517
   2324 H          10.9107   18.6135   31.2972 H     291  UNL291      0.0427
   2325 H          10.9107   18.6135   33.0743 H     291  UNL291      0.0427
   2326 H           8.8239   19.6691   32.1858 H     291  UNL291      0.0241
   2327 H           9.7881   20.8596   33.0732 H     291  UNL291      0.0241
   2328 H           9.7881   20.8596   31.2984 H     291  UNL291      0.0241
   2329 CL         11.9241   23.6892    2.8684 Cl    292  UNL292     -0.1257
   2330 C          10.7038   22.8075    1.9249 C.3   292  UNL292      0.0198
   2331 C           9.7826   23.7753    1.2126 C.3   292  UNL292     -0.0517
   2332 H          11.2279   22.1704    1.2069 H     292  UNL292      0.0427
   2333 H          10.1409   22.1704    2.6128 H     292  UNL292      0.0427
   2334 H           9.0335   23.2260    0.6334 H     292  UNL292      0.0241
   2335 H           9.2535   24.4165    1.9252 H     292  UNL292      0.0241
   2336 H          10.3391   24.4165    0.5212 H     292  UNL292      0.0241
   2337 CL         11.8318   24.4327    5.2949 Cl    293  UNL293     -0.1257
   2338 C          11.1509   22.7917    5.2949 C.3   293  UNL293      0.0198
   2339 C           9.6376   22.8450    5.2949 C.3   293  UNL293     -0.0517
   2340 H          11.5211   22.2726    4.4063 H     293  UNL293      0.0427
   2341 H          11.5211   22.2726    6.1834 H     293  UNL293      0.0427
   2342 H           9.2245   21.8313    5.2949 H     293  UNL293      0.0241
   2343 H           9.2591   23.3629    6.1823 H     293  UNL293      0.0241
   2344 H           9.2591   23.3629    4.4075 H     293  UNL293      0.0241
   2345 CL         11.7806   24.2556    9.6322 Cl    294  UNL294     -0.1257
   2346 C          11.0791   22.7556    8.9884 C.3   294  UNL294      0.0198
   2347 C           9.7073   23.0193    8.4042 C.3   294  UNL294     -0.0517
   2348 H          11.7581   22.3661    8.2246 H     294  UNL294      0.0427
   2349 H          11.0203   22.0322    9.8064 H     294  UNL294      0.0427
   2350 H           9.2808   22.0916    8.0094 H     294  UNL294      0.0241
   2351 H           9.0212   23.4089    9.1634 H     294  UNL294      0.0241
   2352 H           9.7580   23.7424    7.5836 H     294  UNL294      0.0241
   2353 CL         10.8270   23.2560   11.9940 Cl    295  UNL295     -0.1257
   2354 C           9.0721   23.1393   12.2462 C.3   295  UNL295      0.0198
   2355 C           8.7377   23.2674   13.7174 C.3   295  UNL295     -0.0517
   2356 H           8.5945   23.9358   11.6686 H     295  UNL295      0.0427
   2357 H           8.7383   22.1743   11.8546 H     295  UNL295      0.0427
   2358 H           7.6555   23.1947   13.8658 H     295  UNL295      0.0241
   2359 H           9.2120   22.4726   14.3025 H     295  UNL295      0.0241
   2360 H           9.0683   24.2318   14.1167 H     295  UNL295      0.0241
   2361 CL         11.7068   24.6202   16.3399 Cl    296  UNL296     -0.1257
   2362 C          11.0259   22.9792   16.3399 C.3   296  UNL296      0.0198
   2363 C           9.5126   23.0325   16.3399 C.3   296  UNL296     -0.0517
   2364 H          11.3961   22.4601   15.4513 H     296  UNL296      0.0427
   2365 H          11.3961   22.4601   17.2284 H     296  UNL296      0.0427
   2366 H           9.0995   22.0188   16.3399 H     296  UNL296      0.0241
   2367 H           9.1341   23.5504   17.2273 H     296  UNL296      0.0241
   2368 H           9.1341   23.5504   15.4525 H     296  UNL296      0.0241
   2369 CL         12.0491   24.6382   19.7369 Cl    297  UNL297     -0.1257
   2370 C          10.8288   23.5031   19.1211 C.3   297  UNL297      0.0198
   2371 C           9.9076   23.0574   20.2370 C.3   297  UNL297     -0.0517
   2372 H          10.2658   24.0086   18.3314 H     297  UNL297      0.0427
   2373 H          11.3529   22.6480   18.6852 H     297  UNL297      0.0427
   2374 H           9.1585   22.3586   19.8512 H     297  UNL297      0.0241
   2375 H          10.4641   22.5496   21.0316 H     297  UNL297      0.0241
   2376 H           9.3785   23.9084   20.6782 H     297  UNL297      0.0241
   2377 CL         12.1028   23.5642   22.7658 Cl    298  UNL298     -0.1257
   2378 C          10.5603   22.6825   22.7658 C.3   298  UNL298      0.0198
   2379 C           9.3958   23.6503   22.7658 C.3   298  UNL298     -0.0517
   2380 H          10.5357   22.0454   21.8772 H     298  UNL298      0.0427
   2381 H          10.5357   22.0454   23.6543 H     298  UNL298      0.0427
   2382 H           8.4489   23.1010   22.7658 H     298  UNL298      0.0241
   2383 H           9.4131   24.2915   23.6532 H     298  UNL298      0.0241
   2384 H           9.4131   24.2915   21.8784 H     298  UNL298      0.0241
   2385 CL         11.3402   24.0320   24.5618 Cl    299  UNL299     -0.1257
   2386 C          10.4713   22.9193   25.6404 C.3   299  UNL299      0.0198
   2387 C           9.0492   23.3922   25.8568 C.3   299  UNL299     -0.0517
   2388 H          10.4848   21.9261   25.1827 H     299  UNL299      0.0427
   2389 H          11.0144   22.8754   26.5886 H     299  UNL299      0.0427
   2390 H           8.5196   22.7026   26.5219 H     299  UNL299      0.0241
   2391 H           9.0273   24.3861   26.3156 H     299  UNL299      0.0241
   2392 H           8.4984   23.4380   24.9116 H     299  UNL299      0.0241
   2393 CL         12.2664   22.1097   29.0666 Cl    300  UNL300     -0.1257
   2394 C          10.5068   22.3557   29.0666 C.3   300  UNL300      0.0198
   2395 C          10.1775   23.8337   29.0666 C.3   300  UNL300     -0.0517
   2396 H          10.0976   21.8668   28.1780 H     300  UNL300      0.0427
   2397 H          10.0976   21.8668   29.9551 H     300  UNL300      0.0427
   2398 H           9.0925   23.9783   29.0666 H     300  UNL300      0.0241
   2399 H          10.5834   24.3304   29.9540 H     300  UNL300      0.0241
   2400 H          10.5834   24.3304   28.1792 H     300  UNL300      0.0241
   2401 CL         11.3402   24.0320   31.2376 Cl    301  UNL301     -0.1257
   2402 C          10.4713   22.9193   32.3163 C.3   301  UNL301      0.0198
   2403 C           9.0492   23.3922   32.5327 C.3   301  UNL301     -0.0517
   2404 H          10.4848   21.9261   31.8586 H     301  UNL301      0.0427
   2405 H          11.0144   22.8754   33.2645 H     301  UNL301      0.0427
   2406 H           8.5196   22.7026   33.1978 H     301  UNL301      0.0241
   2407 H           9.0273   24.3861   32.9915 H     301  UNL301      0.0241
   2408 H           8.4984   23.4380   31.5874 H     301  UNL301      0.0241
   2409 CL         12.3528   23.5642   35.3675 Cl    302  UNL302     -0.1257
   2410 C          10.8103   22.6825   35.3675 C.3   302  UNL302      0.0198
   2411 C           9.6458   23.6503   35.3675 C.3   302  UNL302     -0.0517
   2412 H          10.7857   22.0454   34.4789 H     302  UNL302      0.0427
   2413 H          10.7857   22.0454   36.2560 H     302  UNL302      0.0427
   2414 H           8.6989   23.1010   35.3675 H     302  UNL302      0.0241
   2415 H           9.6631   24.2915   36.2549 H     302  UNL302      0.0241
   2416 H           9.6631   24.2915   34.4801 H     302  UNL302      0.0241
   2417 CL         10.0403   27.2151    0.3890 Cl    303  UNL303     -0.1257
   2418 C           8.4978   26.4102    0.0291 C.3   303  UNL303      0.0198
   2419 C           7.3333   27.2938    0.4241 C.3   303  UNL303     -0.0517
   2420 H           8.4732   26.1912   -1.0421 H     303  UNL303      0.0427
   2421 H           8.4732   25.4660    0.5803 H     303  UNL303      0.0427
   2422 H           6.3864   26.7923    0.1999 H     303  UNL303      0.0241
   2423 H           7.3506   27.5170    1.4959 H     303  UNL303      0.0241
   2424 H           7.3506   28.2413   -0.1244 H     303  UNL303      0.0241
   2425 CL          8.2946   25.4846    4.6864 Cl    304  UNL304     -0.1257
   2426 C           8.5114   26.8796    3.6077 C.3   304  UNL304      0.0198
   2427 C           9.9837   27.1595    3.3913 C.3   304  UNL304     -0.0517
   2428 H           8.0157   26.6533    2.6594 H     304  UNL304      0.0427
   2429 H           8.0157   27.7403    4.0653 H     304  UNL304      0.0427
   2430 H          10.1103   28.0197    2.7262 H     304  UNL304      0.0241
   2431 H          10.4870   27.3877    4.3365 H     304  UNL304      0.0241
   2432 H          10.4870   26.3021    2.9325 H     304  UNL304      0.0241
   2433 CL          8.7346   25.1721    7.0537 Cl    305  UNL305     -0.1257
   2434 C           9.5658   26.5671    6.3329 C.3   305  UNL305      0.0198
   2435 C          10.8629   26.8470    7.0623 C.3   305  UNL305     -0.0517
   2436 H           9.7537   26.3408    5.2795 H     305  UNL305      0.0427
   2437 H           8.8938   27.4278    6.3917 H     305  UNL305      0.0427
   2438 H          11.3699   27.7072    6.6136 H     305  UNL305      0.0241
   2439 H          10.6829   27.0752    8.1179 H     305  UNL305      0.0241
   2440 H          11.5418   25.9896    7.0072 H     305  UNL305      0.0241
   2441 CL         10.4816   25.4674   10.4486 Cl    306  UNL306     -0.1257
   2442 C           9.5841   26.8284    9.7422 C.3   306  UNL306      0.0198
   2443 C           8.3085   27.0825   10.5176 C.3   306  UNL306     -0.0517
   2444 H          10.2333   27.7082    9.7636 H     306  UNL306      0.0427
   2445 H           9.3624   26.5819    8.7001 H     306  UNL306      0.0427
   2446 H           7.7605   27.9217   10.0775 H     306  UNL306      0.0241
   2447 H           7.6526   26.2059   10.5002 H     306  UNL306      0.0241
   2448 H           8.5224   27.3308   11.5624 H     306  UNL306      0.0241
   2449 CL         12.2278   27.0586   13.1582 Cl    307  UNL307     -0.1257
   2450 C          10.6853   26.1769   13.1582 C.3   307  UNL307      0.0198
   2451 C           9.5208   27.1447   13.1582 C.3   307  UNL307     -0.0517
   2452 H          10.6607   25.5398   12.2696 H     307  UNL307      0.0427
   2453 H          10.6607   25.5398   14.0467 H     307  UNL307      0.0427
   2454 H           8.5739   26.5954   13.1582 H     307  UNL307      0.0241
   2455 H           9.5381   27.7859   14.0456 H     307  UNL307      0.0241
   2456 H           9.5381   27.7859   12.2708 H     307  UNL307      0.0241
   2457 CL          9.1071   25.4221   17.2881 Cl    308  UNL308     -0.1257
   2458 C           9.3239   26.8171   16.2094 C.3   308  UNL308      0.0198
   2459 C          10.7962   27.0970   15.9930 C.3   308  UNL308     -0.0517
   2460 H           8.8282   26.5908   15.2612 H     308  UNL308      0.0427
   2461 H           8.8282   27.6778   16.6670 H     308  UNL308      0.0427
   2462 H          10.9228   27.9572   15.3279 H     308  UNL308      0.0241
   2463 H          11.2995   27.3252   16.9383 H     308  UNL308      0.0241
   2464 H          11.2995   26.2396   15.5342 H     308  UNL308      0.0241
   2465 CL         11.0403   26.5370   19.6152 Cl    309  UNL309     -0.1257
   2466 C           9.4978   27.4153   19.6931 C.3   309  UNL309      0.0198
   2467 C           8.3333   26.4512   19.6076 C.3   309  UNL309     -0.0517
   2468 H           9.4732   27.9713   20.6345 H     309  UNL309      0.0427
   2469 H           9.4732   28.1284   18.8644 H     309  UNL309      0.0427
   2470 H           7.3864   26.9984   19.6561 H     309  UNL309      0.0241
   2471 H           8.3506   25.8910   18.6670 H     309  UNL309      0.0241
   2472 H           8.3506   25.7341   20.4348 H     309  UNL309      0.0241
   2473 CL         11.8318   27.0275   24.3151 Cl    310  UNL310     -0.1257
   2474 C          11.1509   26.6145   22.7269 C.3   310  UNL310      0.0198
   2475 C           9.6376   26.6279   22.7785 C.3   310  UNL310     -0.0517
   2476 H          11.5211   27.3438   22.0009 H     310  UNL310      0.0427
   2477 H          11.5211   25.6239   22.4481 H     310  UNL310      0.0427
   2478 H           9.2245   26.3727   21.7973 H     310  UNL310      0.0241
   2479 H           9.2591   25.8994   23.5030 H     310  UNL310      0.0241
   2480 H           9.2591   27.6171   23.0563 H     310  UNL310      0.0241
   2481 CL         11.8318   28.3021   25.7599 Cl    311  UNL311     -0.1257
   2482 C          11.1509   26.6611   25.7599 C.3   311  UNL311      0.0198
   2483 C           9.6376   26.7144   25.7599 C.3   311  UNL311     -0.0517
   2484 H          11.5211   26.1420   24.8713 H     311  UNL311      0.0427
   2485 H          11.5211   26.1420   26.6484 H     311  UNL311      0.0427
   2486 H           9.2245   25.7007   25.7599 H     311  UNL311      0.0241
   2487 H           9.2591   27.2322   26.6473 H     311  UNL311      0.0241
   2488 H           9.2591   27.2322   24.8725 H     311  UNL311      0.0241
   2489 CL         11.3402   27.5889   27.9934 Cl    312  UNL312     -0.1257
   2490 C          10.4713   26.4762   29.0721 C.3   312  UNL312      0.0198
   2491 C           9.0492   26.9490   29.2885 C.3   312  UNL312     -0.0517
   2492 H          10.4848   25.4830   28.6144 H     312  UNL312      0.0427
   2493 H          11.0144   26.4323   30.0203 H     312  UNL312      0.0427
   2494 H           8.5196   26.2595   29.9536 H     312  UNL312      0.0241
   2495 H           9.0273   27.9430   29.7473 H     312  UNL312      0.0241
   2496 H           8.4984   26.9949   28.3433 H     312  UNL312      0.0241
   2497 CL         11.8318   28.1771   32.1858 Cl    313  UNL313     -0.1257
   2498 C          11.1509   26.5361   32.1858 C.3   313  UNL313      0.0198
   2499 C           9.6376   26.5894   32.1858 C.3   313  UNL313     -0.0517
   2500 H          11.5211   26.0170   31.2972 H     313  UNL313      0.0427
   2501 H          11.5211   26.0170   33.0743 H     313  UNL313      0.0427
   2502 H           9.2245   25.5757   32.1858 H     313  UNL313      0.0241
   2503 H           9.2591   27.1072   33.0732 H     313  UNL313      0.0241
   2504 H           9.2591   27.1072   31.2984 H     313  UNL313      0.0241
   2505 CL         11.3402   27.5889   34.4193 Cl    314  UNL314     -0.1257
   2506 C          10.4713   26.4762   35.4980 C.3   314  UNL314      0.0198
   2507 C           9.0492   26.9490   35.7143 C.3   314  UNL314     -0.0517
   2508 H          10.4848   25.4830   35.0403 H     314  UNL314      0.0427
   2509 H          11.0144   26.4323   36.4461 H     314  UNL314      0.0427
   2510 H           8.5196   26.2595   36.3795 H     314  UNL314      0.0241
   2511 H           9.0273   27.9430   36.1732 H     314  UNL314      0.0241
   2512 H           8.4984   26.9949   34.7691 H     314  UNL314      0.0241
   2513 CL         12.4778   30.2871    1.9570 Cl    315  UNL315     -0.1257
   2514 C          10.9353   30.0652    1.1036 C.3   315  UNL315      0.0198
   2515 C           9.7708   30.3088    2.0403 C.3   315  UNL315     -0.0517
   2516 H          10.9107   30.7649    0.2634 H     315  UNL315      0.0427
   2517 H          10.9107   29.0450    0.7107 H     315  UNL315      0.0427
   2518 H           8.8239   30.1705    1.5087 H     315  UNL315      0.0241
   2519 H           9.7881   29.6114    2.8842 H     315  UNL315      0.0241
   2520 H           9.7881   31.3290    2.4375 H     315  UNL315      0.0241
   2521 CL         11.7806   31.2444    5.4506 Cl    316  UNL316     -0.1257
   2522 C          11.0791   29.7444    4.8067 C.3   316  UNL316      0.0198
   2523 C           9.7073   30.0080    4.2225 C.3   316  UNL316     -0.0517
   2524 H          11.7581   29.3549    4.0429 H     316  UNL316      0.0427
   2525 H          11.0203   29.0210    5.6247 H     316  UNL316      0.0427
   2526 H           9.2808   29.0803    3.8277 H     316  UNL316      0.0241
   2527 H           9.0212   30.3977    4.9817 H     316  UNL316      0.0241
   2528 H           9.7580   30.7312    3.4019 H     316  UNL316      0.0241
   2529 CL         12.1773   29.4857    7.4713 Cl    317  UNL317     -0.1257
   2530 C          10.6726   29.5346    8.4148 C.3   317  UNL317      0.0198
   2531 C          10.5358   30.8638    9.1271 C.3   317  UNL317     -0.0517
   2532 H           9.8375   29.3750    7.7269 H     317  UNL317      0.0427
   2533 H          10.6974   28.7101    9.1328 H     317  UNL317      0.0427
   2534 H           9.6072   30.8874    9.7063 H     317  UNL317      0.0241
   2535 H          11.3682   31.0306    9.8186 H     317  UNL317      0.0241
   2536 H          10.5094   31.6947    8.4145 H     317  UNL317      0.0241
   2537 CL         10.8100   29.5740   13.1157 Cl    318  UNL318     -0.1257
   2538 C           9.0973   29.8808   12.7559 C.3   318  UNL318      0.0198
   2539 C           8.7165   31.2920   13.1508 C.3   318  UNL318     -0.0517
   2540 H           8.9439   29.7226   11.6846 H     318  UNL318      0.0427
   2541 H           8.5003   29.1488   13.3070 H     318  UNL318      0.0427
   2542 H           7.6607   31.4745   12.9267 H     318  UNL318      0.0241
   2543 H           8.8668   31.4581   14.2226 H     318  UNL318      0.0241
   2544 H           9.3098   32.0310   12.6024 H     318  UNL318      0.0241
   2545 CL         11.5818   31.7340   16.2149 Cl    319  UNL319     -0.1257
   2546 C          10.9009   30.0930   16.2149 C.3   319  UNL319      0.0198
   2547 C           9.3876   30.1463   16.2149 C.3   319  UNL319     -0.0517
   2548 H          11.2711   29.5739   15.3263 H     319  UNL319      0.0427
   2549 H          11.2711   29.5739   17.1034 H     319  UNL319      0.0427
   2550 H           8.9745   29.1325   16.2149 H     319  UNL319      0.0241
   2551 H           9.0091   30.6641   17.1023 H     319  UNL319      0.0241
   2552 H           9.0091   30.6641   15.3275 H     319  UNL319      0.0241
   2553 CL         11.7991   30.6780   18.1413 Cl    320  UNL320     -0.1257
   2554 C          10.5788   29.7963   19.0848 C.3   320  UNL320      0.0198
   2555 C           9.6576   30.7641   19.7971 C.3   320  UNL320     -0.0517
   2556 H          10.0158   29.1592   18.3969 H     320  UNL320      0.0427
   2557 H          11.1029   29.1592   19.8028 H     320  UNL320      0.0427
   2558 H           8.9085   30.2148   20.3764 H     320  UNL320      0.0241
   2559 H          10.2141   31.4053   20.4886 H     320  UNL320      0.0241
   2560 H           9.1285   31.4053   19.0845 H     320  UNL320      0.0241
   2561 CL         11.3402   31.1458   21.6301 Cl    321  UNL321     -0.1257
   2562 C          10.4713   30.0331   22.7087 C.3   321  UNL321      0.0198
   2563 C           9.0492   30.5059   22.9251 C.3   321  UNL321     -0.0517
   2564 H          10.4848   29.0399   22.2510 H     321  UNL321      0.0427
   2565 H          11.0144   29.9892   23.6569 H     321  UNL321      0.0427
   2566 H           8.5196   29.8164   23.5902 H     321  UNL321      0.0241
   2567 H           9.0273   31.4999   23.3839 H     321  UNL321      0.0241
   2568 H           8.4984   30.5518   21.9799 H     321  UNL321      0.0241
   2569 CL          8.8571   29.1039   27.0206 Cl    322  UNL322     -0.1257
   2570 C           9.0739   30.4990   25.9420 C.3   322  UNL322      0.0198
   2571 C          10.5462   30.7788   25.7256 C.3   322  UNL322     -0.0517
   2572 H           8.5782   30.2727   24.9937 H     322  UNL322      0.0427
   2573 H           8.5782   31.3597   26.3996 H     322  UNL322      0.0427
   2574 H          10.6728   31.6391   25.0605 H     322  UNL322      0.0241
   2575 H          11.0495   31.0071   26.6708 H     322  UNL322      0.0241
   2576 H          11.0495   29.9215   25.2667 H     322  UNL322      0.0241
   2577 CL         12.2664   29.2235   29.0666 Cl    323  UNL323     -0.1257
   2578 C          10.5068   29.4695   29.0666 C.3   323  UNL323      0.0198
   2579 C          10.1775   30.9474   29.0666 C.3   323  UNL323     -0.0517
   2580 H          10.0976   28.9805   28.1780 H     323  UNL323      0.0427
   2581 H          10.0976   28.9805   29.9551 H     323  UNL323      0.0427
   2582 H           9.0925   31.0921   29.0666 H     323  UNL323      0.0241
   2583 H          10.5834   31.4441   29.9540 H     323  UNL323      0.0241
   2584 H          10.5834   31.4441   28.1792 H     323  UNL323      0.0241
   2585 CL         11.3402   31.3958   30.9876 Cl    324  UNL324     -0.1257
   2586 C          10.4713   30.2831   32.0663 C.3   324  UNL324      0.0198
   2587 C           9.0492   30.7559   32.2827 C.3   324  UNL324     -0.0517
   2588 H          10.4848   29.2899   31.6086 H     324  UNL324      0.0427
   2589 H          11.0144   30.2392   33.0145 H     324  UNL324      0.0427
   2590 H           8.5196   30.0664   32.9478 H     324  UNL324      0.0241
   2591 H           9.0273   31.7499   32.7415 H     324  UNL324      0.0241
   2592 H           8.4984   30.8018   31.3374 H     324  UNL324      0.0241
   2593 CL         12.2278   30.8030   35.3675 Cl    325  UNL325     -0.1257
   2594 C          10.6853   29.9213   35.3675 C.3   325  UNL325      0.0198
   2595 C           9.5208   30.8891   35.3675 C.3   325  UNL325     -0.0517
   2596 H          10.6607   29.2842   34.4789 H     325  UNL325      0.0427
   2597 H          10.6607   29.2842   36.2560 H     325  UNL325      0.0427
   2598 H           8.5739   30.3398   35.3675 H     325  UNL325      0.0241
   2599 H           9.5381   31.5303   36.2549 H     325  UNL325      0.0241
   2600 H           9.5381   31.5303   34.4801 H     325  UNL325      0.0241
   2601 CL         12.4153   34.3598    0.4315 Cl    326  UNL326     -0.1257
   2602 C          10.8728   33.4781    0.4315 C.3   326  UNL326      0.0198
   2603 C           9.7083   34.4459    0.4315 C.3   326  UNL326     -0.0517
   2604 H          10.8482   32.8410   -0.4571 H     326  UNL326      0.0427
   2605 H          10.8482   32.8410    1.3200 H     326  UNL326      0.0427
   2606 H           8.7614   33.8966    0.4315 H     326  UNL326      0.0241
   2607 H           9.7256   35.0871    1.3189 H     326  UNL326      0.0241
   2608 H           9.7256   35.0871   -0.4559 H     326  UNL326      0.0241
   2609 CL         11.3402   34.7027    4.6864 Cl    327  UNL327     -0.1257
   2610 C          10.4713   33.5899    3.6077 C.3   327  UNL327      0.0198
   2611 C           9.0492   34.0628    3.3913 C.3   327  UNL327     -0.0517
   2612 H          11.0144   33.5461    2.6594 H     327  UNL327      0.0427
   2613 H          10.4849   32.5968    4.0653 H     327  UNL327      0.0427
   2614 H           8.5196   33.3732    2.7262 H     327  UNL327      0.0241
   2615 H           8.4984   34.1087    4.3365 H     327  UNL327      0.0241
   2616 H           9.0273   35.0567    2.9325 H     327  UNL327      0.0241
   2617 CL          9.4292   32.2730    6.2802 Cl    328  UNL328     -0.1257
   2618 C           9.6007   34.0364    6.4128 C.3   328  UNL328      0.0198
   2619 C          10.7654   34.3901    7.3134 C.3   328  UNL328     -0.0517
   2620 H           9.7521   34.4374    5.4066 H     328  UNL328      0.0427
   2621 H           8.6651   34.4374    6.8125 H     328  UNL328      0.0427
   2622 H          10.8656   35.4775    7.3908 H     328  UNL328      0.0241
   2623 H          10.6208   33.9926    8.3233 H     328  UNL328      0.0241
   2624 H          11.7064   33.9926    6.9192 H     328  UNL328      0.0241
   2625 CL         10.4816   32.7062   10.4486 Cl    329  UNL329     -0.1257
   2626 C           9.5841   34.0671    9.7422 C.3   329  UNL329      0.0198
   2627 C           8.3085   34.3212   10.5176 C.3   329  UNL329     -0.0517
   2628 H          10.2333   34.9470    9.7636 H     329  UNL329      0.0427
   2629 H           9.3624   33.8207    8.7001 H     329  UNL329      0.0427
   2630 H           7.7605   35.1605   10.0775 H     329  UNL329      0.0241
   2631 H           7.6526   33.4447   10.5002 H     329  UNL329      0.0241
   2632 H           8.5224   34.5695   11.5624 H     329  UNL329      0.0241
   2633 CL         12.2278   34.2973   13.1582 Cl    330  UNL330     -0.1257
   2634 C          10.6853   33.4156   13.1582 C.3   330  UNL330      0.0198
   2635 C           9.5208   34.3834   13.1582 C.3   330  UNL330     -0.0517
   2636 H          10.6607   32.7785   12.2696 H     330  UNL330      0.0427
   2637 H          10.6607   32.7785   14.0467 H     330  UNL330      0.0427
   2638 H           8.5739   33.8341   13.1582 H     330  UNL330      0.0241
   2639 H           9.5381   35.0246   14.0456 H     330  UNL330      0.0241
   2640 H           9.5381   35.0246   12.2708 H     330  UNL330      0.0241
   2641 CL         10.1591   35.7470   17.4131 Cl    331  UNL331     -0.1257
   2642 C          10.6494   34.4231   16.3344 C.3   331  UNL331      0.0198
   2643 C           9.5000   33.4614   16.1180 C.3   331  UNL331     -0.0517
   2644 H          10.9721   34.8622   15.3862 H     331  UNL331      0.0427
   2645 H          11.5016   33.9129   16.7920 H     331  UNL331      0.0427
   2646 H           9.8085   32.6485   15.4529 H     331  UNL331      0.0241
   2647 H           9.1717   33.0169   17.0633 H     331  UNL331      0.0241
   2648 H           8.6428   33.9649   15.6592 H     331  UNL331      0.0241
   2649 CL         10.2416   35.1542   19.9312 Cl    332  UNL332     -0.1257
   2650 C           8.6986   34.6281   19.2248 C.3   332  UNL332      0.0198
   2651 C           8.1316   33.4576   20.0001 C.3   332  UNL332     -0.0517
   2652 H           8.0105   35.4779   19.2462 H     332  UNL332      0.0427
   2653 H           8.8813   34.3515   18.1826 H     332  UNL332      0.0427
   2654 H           7.1815   33.1384   19.5601 H     332  UNL332      0.0241
   2655 H           8.8149   32.6022   19.9828 H     332  UNL332      0.0241
   2656 H           7.9452   33.7270   21.0449 H     332  UNL332      0.0241
   2657 CL         11.7991   34.4848   21.3855 Cl    333  UNL333     -0.1257
   2658 C          10.5788   33.6031   22.3290 C.3   333  UNL333      0.0198
   2659 C           9.6576   34.5709   23.0413 C.3   333  UNL333     -0.0517
   2660 H          10.0158   32.9660   21.6411 H     333  UNL333      0.0427
   2661 H          11.1029   32.9660   23.0470 H     333  UNL333      0.0427
   2662 H           8.9085   34.0216   23.6205 H     333  UNL333      0.0241
   2663 H          10.2141   35.2121   23.7328 H     333  UNL333      0.0241
   2664 H           9.1285   35.2121   22.3287 H     333  UNL333      0.0241
   2665 CL         11.6741   33.0042   25.1002 Cl    334  UNL334     -0.1257
   2666 C          10.4538   33.6954   26.1910 C.3   334  UNL334      0.0198
   2667 C           9.5326   34.6284   25.4336 C.3   334  UNL334     -0.0517
   2668 H           9.8908   32.8693   26.6344 H     334  UNL334      0.0427
   2669 H          10.9779   34.2299   26.9883 H     334  UNL334      0.0427
   2670 H           8.7835   35.0507   26.1110 H     334  UNL334      0.0241
   2671 H          10.0891   35.4589   24.9871 H     334  UNL334      0.0241
   2672 H           9.0035   34.1001   24.6337 H     334  UNL334      0.0241
   2673 CL          9.9091   35.8720   27.7434 Cl    335  UNL335     -0.1257
   2674 C          10.3994   34.5481   28.8221 C.3   335  UNL335      0.0198
   2675 C           9.2500   33.5864   29.0385 C.3   335  UNL335     -0.0517
   2676 H          11.2517   34.0379   28.3644 H     335  UNL335      0.0427
   2677 H          10.7221   34.9872   29.7703 H     335  UNL335      0.0427
   2678 H           9.5585   32.7735   29.7036 H     335  UNL335      0.0241
   2679 H           8.3928   34.0899   29.4973 H     335  UNL335      0.0241
   2680 H           8.9217   33.1419   28.0933 H     335  UNL335      0.0241
   2681 CL         11.4568   35.6659   32.1858 Cl    336  UNL336     -0.1257
   2682 C          10.7759   34.0248   32.1858 C.3   336  UNL336      0.0198
   2683 C           9.2626   34.0782   32.1858 C.3   336  UNL336     -0.0517
   2684 H          11.1461   33.5058   31.2972 H     336  UNL336      0.0427
   2685 H          11.1461   33.5058   33.0743 H     336  UNL336      0.0427
   2686 H           8.8495   33.0644   32.1858 H     336  UNL336      0.0241
   2687 H           8.8841   34.5960   33.0732 H     336  UNL336      0.0241
   2688 H           8.8841   34.5960   31.2984 H     336  UNL336      0.0241
   2689 CL         11.3402   34.8277   34.4193 Cl    337  UNL337     -0.1257
   2690 C          10.4713   33.7149   35.4980 C.3   337  UNL337      0.0198
   2691 C           9.0492   34.1878   35.7143 C.3   337  UNL337     -0.0517
   2692 H          10.4848   32.7217   35.0403 H     337  UNL337      0.0427
   2693 H          11.0144   33.6711   36.4461 H     337  UNL337      0.0427
   2694 H           8.5196   33.4983   36.3795 H     337  UNL337      0.0241
   2695 H           9.0273   35.1817   36.1732 H     337  UNL337      0.0241
   2696 H           8.4984   34.2337   34.7691 H     337  UNL337      0.0241
   2697 CL         15.7434    2.0979    0.4315 Cl    338  UNL338     -0.1257
   2698 C          14.2009    1.2162    0.4315 C.3   338  UNL338      0.0198
   2699 C          13.0364    2.1840    0.4315 C.3   338  UNL338     -0.0517
   2700 H          14.1763    0.5791   -0.4571 H     338  UNL338      0.0427
   2701 H          14.1763    0.5791    1.3200 H     338  UNL338      0.0427
   2702 H          12.0895    1.6347    0.4315 H     338  UNL338      0.0241
   2703 H          13.0537    2.8252    1.3189 H     338  UNL338      0.0241
   2704 H          13.0537    2.8252   -0.4559 H     338  UNL338      0.0241
   2705 CL         17.1073    3.2794    3.7382 Cl    339  UNL339     -0.1257
   2706 C          16.0589    1.8450    3.7382 C.3   339  UNL339      0.0198
   2707 C          14.6008    2.2533    3.7382 C.3   339  UNL339     -0.0517
   2708 H          16.2964    1.2534    2.8496 H     339  UNL339      0.0427
   2709 H          16.2964    1.2534    4.6267 H     339  UNL339      0.0427
   2710 H          13.9605    1.3654    3.7382 H     339  UNL339      0.0241
   2711 H          14.3549    2.8458    4.6256 H     339  UNL339      0.0241
   2712 H          14.3549    2.8458    2.8508 H     339  UNL339      0.0241
   2713 CL         16.7933    1.5032    7.7430 Cl    340  UNL340     -0.1257
   2714 C          15.9244    0.3905    6.6644 C.3   340  UNL340      0.0198
   2715 C          14.5023    0.8634    6.4480 C.3   340  UNL340     -0.0517
   2716 H          16.4676    0.3467    5.7161 H     340  UNL340      0.0427
   2717 H          15.9380   -0.6026    7.1220 H     340  UNL340      0.0427
   2718 H          13.9727    0.1738    5.7829 H     340  UNL340      0.0241
   2719 H          13.9515    0.9092    7.3932 H     340  UNL340      0.0241
   2720 H          14.4804    1.8573    5.9892 H     340  UNL340      0.0241
   2721 CL         17.6809    0.5045   10.1840 Cl    341  UNL341     -0.1257
   2722 C          16.1384   -0.3005    9.8242 C.3   341  UNL341      0.0198
   2723 C          14.9739    0.5831   10.2191 C.3   341  UNL341     -0.0517
   2724 H          16.1138   -0.5195    8.7530 H     341  UNL341      0.0427
   2725 H          16.1138   -1.2447   10.3753 H     341  UNL341      0.0427
   2726 H          14.0270    0.0816    9.9950 H     341  UNL341      0.0241
   2727 H          14.9912    0.8063   11.2910 H     341  UNL341      0.0241
   2728 H          14.9912    1.5306    9.6707 H     341  UNL341      0.0241
   2729 CL         17.0349    3.2790   13.0332 Cl    342  UNL342     -0.1257
   2730 C          16.3540    1.6379   13.0332 C.3   342  UNL342      0.0198
   2731 C          14.8408    1.6912   13.0332 C.3   342  UNL342     -0.0517
   2732 H          16.7242    1.1189   12.1446 H     342  UNL342      0.0427
   2733 H          16.7242    1.1189   13.9217 H     342  UNL342      0.0427
   2734 H          14.4277    0.6775   13.0332 H     342  UNL342      0.0241
   2735 H          14.4622    2.2091   13.9206 H     342  UNL342      0.0241
   2736 H          14.4622    2.2091   12.1458 H     342  UNL342      0.0241
   2737 CL         14.5603    0.3989   15.2667 Cl    343  UNL343     -0.1257
   2738 C          14.7770    1.7939   16.3454 C.3   343  UNL343      0.0198
   2739 C          16.2493    2.0738   16.5618 C.3   343  UNL343     -0.0517
   2740 H          14.2813    2.6547   15.8877 H     343  UNL343      0.0427
   2741 H          14.2813    1.5677   17.2936 H     343  UNL343      0.0427
   2742 H          16.3759    2.9340   17.2269 H     343  UNL343      0.0241
   2743 H          16.7526    1.2165   17.0206 H     343  UNL343      0.0241
   2744 H          16.7526    2.3021   15.6165 H     343  UNL343      0.0241
   2745 CL         17.3445    0.9560   19.4591 Cl    344  UNL344     -0.1257
   2746 C          15.5849    1.2020   19.4591 C.3   344  UNL344      0.0198
   2747 C          15.2557    2.6799   19.4591 C.3   344  UNL344     -0.0517
   2748 H          15.1758    0.7130   18.5705 H     344  UNL344      0.0427
   2749 H          15.1758    0.7130   20.3476 H     344  UNL344      0.0427
   2750 H          14.1706    2.8245   19.4591 H     344  UNL344      0.0241
   2751 H          15.6616    3.1766   20.3465 H     344  UNL344      0.0241
   2752 H          15.6616    3.1766   18.5717 H     344  UNL344      0.0241
   2753 CL         17.2849    3.2790   22.5783 Cl    345  UNL345     -0.1257
   2754 C          16.6040    1.6379   22.5783 C.3   345  UNL345      0.0198
   2755 C          15.0908    1.6912   22.5783 C.3   345  UNL345     -0.0517
   2756 H          16.9742    1.1189   21.6897 H     345  UNL345      0.0427
   2757 H          16.9742    1.1189   23.4668 H     345  UNL345      0.0427
   2758 H          14.6777    0.6775   22.5783 H     345  UNL345      0.0241
   2759 H          14.7122    2.2091   23.4657 H     345  UNL345      0.0241
   2760 H          14.7122    2.2091   21.6909 H     345  UNL345      0.0241
   2761 CL         15.1122    3.7351   24.5618 Cl    346  UNL346     -0.1257
   2762 C          15.6026    2.4112   25.6404 C.3   346  UNL346      0.0198
   2763 C          14.4532    1.4495   25.8568 C.3   346  UNL346     -0.0517
   2764 H          16.4548    1.9009   25.1827 H     346  UNL346      0.0427
   2765 H          15.9252    2.8502   26.5886 H     346  UNL346      0.0427
   2766 H          14.7617    0.6366   26.5219 H     346  UNL346      0.0241
   2767 H          13.5959    1.9530   26.3156 H     346  UNL346      0.0241
   2768 H          14.1248    1.0049   24.9116 H     346  UNL346      0.0241
   2769 CL         16.1453    2.3479   31.0527 Cl    347  UNL347     -0.1257
   2770 C          15.7570    1.4662   29.5598 C.3   347  UNL347      0.0198
   2771 C          15.4640    2.4340   28.4328 C.3   347  UNL347     -0.0517
   2772 H          16.6108    0.8291   29.3124 H     347  UNL347      0.0427
   2773 H          14.8910    0.8291   29.7596 H     347  UNL347      0.0427
   2774 H          15.2256    1.8847   27.5164 H     347  UNL347      0.0241
   2775 H          14.6095    3.0752   28.6729 H     347  UNL347      0.0241
   2776 H          16.3271    3.0752   28.2262 H     347  UNL347      0.0241
   2777 CL         14.4353    0.6489   33.5090 Cl    348  UNL348     -0.1257
   2778 C          14.6520    2.0440   32.4303 C.3   348  UNL348      0.0198
   2779 C          16.1243    2.3238   32.2139 C.3   348  UNL348     -0.0517
   2780 H          14.1563    1.8176   31.4821 H     348  UNL348      0.0427
   2781 H          14.1563    2.9047   32.8879 H     348  UNL348      0.0427
   2782 H          16.2509    3.1840   31.5488 H     348  UNL348      0.0241
   2783 H          16.6276    2.5521   33.1592 H     348  UNL348      0.0241
   2784 H          16.6276    1.4665   31.7551 H     348  UNL348      0.0241
   2785 CL         16.9099    3.2790   35.6175 Cl    349  UNL349     -0.1257
   2786 C          16.2290    1.6379   35.6175 C.3   349  UNL349      0.0198
   2787 C          14.7158    1.6912   35.6175 C.3   349  UNL349     -0.0517
   2788 H          16.5992    1.1189   34.7289 H     349  UNL349      0.0427
   2789 H          16.5992    1.1189   36.5060 H     349  UNL349      0.0427
   2790 H          14.3027    0.6775   35.6175 H     349  UNL349      0.0241
   2791 H          14.3372    2.2091   36.5049 H     349  UNL349      0.0241
   2792 H          14.3372    2.2091   34.7301 H     349  UNL349      0.0241
   2793 CL         14.6853    3.9558   -0.7042 Cl    350  UNL350     -0.1257
   2794 C          14.9020    5.3508    0.3745 C.3   350  UNL350      0.0198
   2795 C          16.3743    5.6307    0.5909 C.3   350  UNL350     -0.0517
   2796 H          14.4063    6.2116   -0.0832 H     350  UNL350      0.0427
   2797 H          14.4063    5.1246    1.3227 H     350  UNL350      0.0427
   2798 H          16.5009    6.4909    1.2560 H     350  UNL350      0.0241
   2799 H          16.8776    4.7733    1.0497 H     350  UNL350      0.0241
   2800 H          16.8776    5.8589   -0.3544 H     350  UNL350      0.0241
   2801 CL         17.3059    6.0298    3.6132 Cl    351  UNL351     -0.1257
   2802 C          15.7634    5.1481    3.6132 C.3   351  UNL351      0.0198
   2803 C          14.5989    6.1159    3.6132 C.3   351  UNL351     -0.0517
   2804 H          15.7388    4.5110    2.7246 H     351  UNL351      0.0427
   2805 H          15.7388    4.5110    4.5017 H     351  UNL351      0.0427
   2806 H          13.6520    5.5666    3.6132 H     351  UNL351      0.0241
   2807 H          14.6162    6.7571    4.5006 H     351  UNL351      0.0241
   2808 H          14.6162    6.7571    2.7258 H     351  UNL351      0.0241
   2809 CL         16.6599    5.7733    6.7949 Cl    352  UNL352     -0.1257
   2810 C          15.9790    4.1323    6.7949 C.3   352  UNL352      0.0198
   2811 C          14.4658    4.1856    6.7949 C.3   352  UNL352     -0.0517
   2812 H          16.3492    3.6132    5.9063 H     352  UNL352      0.0427
   2813 H          16.3492    3.6132    7.6834 H     352  UNL352      0.0427
   2814 H          14.0527    3.1719    6.7949 H     352  UNL352      0.0241
   2815 H          14.0872    4.7035    7.6823 H     352  UNL352      0.0241
   2816 H          14.0872    4.7035    5.9075 H     352  UNL352      0.0241
   2817 CL         15.4934    4.0923    9.8515 Cl    353  UNL353     -0.1257
   2818 C          13.9509    3.2106    9.8515 C.3   353  UNL353      0.0198
   2819 C          12.7864    4.1784    9.8515 C.3   353  UNL353     -0.0517
   2820 H          13.9263    2.5735    8.9629 H     353  UNL353      0.0427
   2821 H          13.9263    2.5735   10.7400 H     353  UNL353      0.0427
   2822 H          11.8395    3.6291    9.8515 H     353  UNL353      0.0241
   2823 H          12.8037    4.8196   10.7389 H     353  UNL353      0.0241
   2824 H          12.8037    4.8196    8.9641 H     353  UNL353      0.0241
   2825 CL         14.5603    4.2058   12.1475 Cl    354  UNL354     -0.1257
   2826 C          14.7770    5.6008   13.2262 C.3   354  UNL354      0.0198
   2827 C          16.2493    5.8807   13.4426 C.3   354  UNL354     -0.0517
   2828 H          14.2813    6.4616   12.7685 H     354  UNL354      0.0427
   2829 H          14.2813    5.3746   14.1744 H     354  UNL354      0.0427
   2830 H          16.3759    6.7409   14.1077 H     354  UNL354      0.0241
   2831 H          16.7526    5.0233   13.9014 H     354  UNL354      0.0241
   2832 H          16.7526    6.1089   12.4974 H     354  UNL354      0.0241
   2833 CL         17.8059    5.9048   16.2149 Cl    355  UNL355     -0.1257
   2834 C          16.2634    5.0231   16.2149 C.3   355  UNL355      0.0198
   2835 C          15.0989    5.9909   16.2149 C.3   355  UNL355     -0.0517
   2836 H          16.2388    4.3860   15.3263 H     355  UNL355      0.0427
   2837 H          16.2388    4.3860   17.1034 H     355  UNL355      0.0427
   2838 H          14.1520    5.4416   16.2149 H     355  UNL355      0.0241
   2839 H          15.1162    6.6321   17.1023 H     355  UNL355      0.0241
   2840 H          15.1162    6.6321   15.3275 H     355  UNL355      0.0241
   2841 CL         13.1464    6.1989   19.7397 Cl    356  UNL356     -0.1257
   2842 C          14.6559    5.3352   20.1030 C.3   356  UNL356      0.0198
   2843 C          15.4942    5.1819   18.8513 C.3   356  UNL356     -0.0517
   2844 H          15.1959    5.9050   20.8645 H     356  UNL356      0.0427
   2845 H          14.3941    4.3575   20.5171 H     356  UNL356      0.0427
   2846 H          16.4223    4.6493   19.0819 H     356  UNL356      0.0241
   2847 H          14.9604    4.6117   18.0840 H     356  UNL356      0.0241
   2848 H          15.7611    6.1571   18.4310 H     356  UNL356      0.0241
   2849 CL         14.3103    4.1433   23.9014 Cl    357  UNL357     -0.1257
   2850 C          14.5270    5.5383   22.8228 C.3   357  UNL357      0.0198
   2851 C          15.9993    5.8182   22.6064 C.3   357  UNL357     -0.0517
   2852 H          14.0313    5.3120   21.8745 H     357  UNL357      0.0427
   2853 H          14.0313    6.3990   23.2804 H     357  UNL357      0.0427
   2854 H          16.1259    6.6784   21.9413 H     357  UNL357      0.0241
   2855 H          16.5026    6.0465   23.5516 H     357  UNL357      0.0241
   2856 H          16.5026    4.9608   22.1476 H     357  UNL357      0.0241
   2857 CL         17.2849    6.8358   25.8849 Cl    358  UNL358     -0.1257
   2858 C          16.6040    5.1948   25.8849 C.3   358  UNL358      0.0198
   2859 C          15.0908    5.2481   25.8849 C.3   358  UNL358     -0.0517
   2860 H          16.9742    4.6757   24.9963 H     358  UNL358      0.0427
   2861 H          16.9742    4.6757   26.7734 H     358  UNL358      0.0427
   2862 H          14.6777    4.2344   25.8849 H     358  UNL358      0.0241
   2863 H          14.7122    5.7660   26.7723 H     358  UNL358      0.0241
   2864 H          14.7122    5.7660   24.9975 H     358  UNL358      0.0241
   2865 CL         16.5433    6.3726   30.2648 Cl    359  UNL359     -0.1257
   2866 C          15.6744    5.2599   29.1861 C.3   359  UNL359      0.0198
   2867 C          14.2523    5.7327   28.9697 C.3   359  UNL359     -0.0517
   2868 H          16.2176    5.2160   28.2379 H     359  UNL359      0.0427
   2869 H          15.6880    4.2667   29.6438 H     359  UNL359      0.0427
   2870 H          13.7227    5.0432   28.3046 H     359  UNL359      0.0241
   2871 H          13.7015    5.7786   29.9150 H     359  UNL359      0.0241
   2872 H          14.2304    6.7267   28.5109 H     359  UNL359      0.0241
   2873 CL         17.0349    6.8358   32.3108 Cl    360  UNL360     -0.1257
   2874 C          16.3540    5.1948   32.3108 C.3   360  UNL360      0.0198
   2875 C          14.8408    5.2481   32.3108 C.3   360  UNL360     -0.0517
   2876 H          16.7242    4.6757   31.4222 H     360  UNL360      0.0427
   2877 H          16.7242    4.6757   33.1993 H     360  UNL360      0.0427
   2878 H          14.4277    4.2344   32.3108 H     360  UNL360      0.0241
   2879 H          14.4622    5.7660   33.1982 H     360  UNL360      0.0241
   2880 H          14.4622    5.7660   31.4234 H     360  UNL360      0.0241
   2881 CL         14.4353    4.2058   36.6282 Cl    361  UNL361     -0.1257
   2882 C          14.6520    5.6008   35.5495 C.3   361  UNL361      0.0198
   2883 C          16.1243    5.8807   35.3331 C.3   361  UNL361     -0.0517
   2884 H          14.1563    5.3745   34.6012 H     361  UNL361      0.0427
   2885 H          14.1563    6.4615   36.0071 H     361  UNL361      0.0427
   2886 H          16.2509    6.7409   34.6680 H     361  UNL361      0.0241
   2887 H          16.6276    6.1090   36.2783 H     361  UNL361      0.0241
   2888 H          16.6276    5.0233   34.8743 H     361  UNL361      0.0241
   2889 CL         17.4934    9.5867   -1.0685 Cl    362  UNL362     -0.1257
   2890 C          15.9509    8.7050   -1.0685 C.3   362  UNL362      0.0198
   2891 C          14.7864    9.6728   -1.0685 C.3   362  UNL362     -0.0517
   2892 H          15.9263    8.0679   -1.9571 H     362  UNL362      0.0427
   2893 H          15.9263    8.0679   -0.1800 H     362  UNL362      0.0427
   2894 H          13.8395    9.1235   -1.0685 H     362  UNL362      0.0241
   2895 H          14.8037   10.3140   -0.1811 H     362  UNL362      0.0241
   2896 H          14.8037   10.3140   -1.9559 H     362  UNL362      0.0241
   2897 CL         16.9397    9.3992    1.1079 Cl    363  UNL363     -0.1257
   2898 C          15.7195    8.5175    2.0514 C.3   363  UNL363      0.0198
   2899 C          14.7982    9.4853    2.7638 C.3   363  UNL363     -0.0517
   2900 H          15.1565    7.8804    1.3635 H     363  UNL363      0.0427
   2901 H          16.2435    7.8804    2.7694 H     363  UNL363      0.0427
   2902 H          14.0491    8.9360    3.3430 H     363  UNL363      0.0241
   2903 H          15.3547   10.1265    3.4552 H     363  UNL363      0.0241
   2904 H          14.2691   10.1265    2.0511 H     363  UNL363      0.0241
   2905 CL         14.7434    6.8314    6.6353 Cl    364  UNL364     -0.1257
   2906 C          13.2009    7.3590    7.3416 C.3   364  UNL364      0.0198
   2907 C          12.0364    6.7798    6.5663 C.3   364  UNL364     -0.0517
   2908 H          13.1763    7.0284    8.3838 H     364  UNL364      0.0427
   2909 H          13.1763    8.4521    7.3203 H     364  UNL364      0.0427
   2910 H          11.0895    7.1086    7.0063 H     364  UNL364      0.0241
   2911 H          12.0537    7.1070    5.5215 H     364  UNL364      0.0241
   2912 H          12.0537    5.6852    6.5836 H     364  UNL364      0.0241
   2913 CL         16.3016    5.3973    9.9765 Cl    365  UNL365     -0.1257
   2914 C          15.0600    6.6682    9.9765 C.3   365  UNL365      0.0198
   2915 C          15.7036    8.0388    9.9765 C.3   365  UNL365     -0.0517
   2916 H          14.4372    6.5317    9.0879 H     365  UNL365      0.0427
   2917 H          14.4372    6.5317   10.8650 H     365  UNL365      0.0427
   2918 H          14.9336    8.8170    9.9765 H     365  UNL365      0.0241
   2919 H          16.3285    8.1835   10.8639 H     365  UNL365      0.0241
   2920 H          16.3285    8.1835    9.0891 H     365  UNL365      0.0241
   2921 CL         17.0349   10.3927   13.0332 Cl    366  UNL366     -0.1257
   2922 C          16.3540    8.7517   13.0332 C.3   366  UNL366      0.0198
   2923 C          14.8408    8.8050   13.0332 C.3   366  UNL366     -0.0517
   2924 H          16.7242    8.2326   12.1446 H     366  UNL366      0.0427
   2925 H          16.7242    8.2326   13.9217 H     366  UNL366      0.0427
   2926 H          14.4277    7.7913   13.0332 H     366  UNL366      0.0241
   2927 H          14.4622    9.3228   13.9206 H     366  UNL366      0.0241
   2928 H          14.4622    9.3228   12.1458 H     366  UNL366      0.0241
   2929 CL         16.6683    9.8045   15.1417 Cl    367  UNL367     -0.1257
   2930 C          15.7994    8.6918   16.2204 C.3   367  UNL367      0.0198
   2931 C          14.3773    9.1646   16.4368 C.3   367  UNL367     -0.0517
   2932 H          15.8130    7.6986   15.7627 H     367  UNL367      0.0427
   2933 H          16.3425    8.6479   17.1686 H     367  UNL367      0.0427
   2934 H          13.8477    8.4751   17.1019 H     367  UNL367      0.0241
   2935 H          14.3554   10.1586   16.8956 H     367  UNL367      0.0241
   2936 H          13.8266    9.2105   15.4915 H     367  UNL367      0.0241
   2937 CL         14.6853    7.7626   18.5109 Cl    368  UNL368     -0.1257
   2938 C          14.9020    9.1577   19.5896 C.3   368  UNL368      0.0198
   2939 C          16.3743    9.4376   19.8059 C.3   368  UNL368     -0.0517
   2940 H          14.4063   10.0185   19.1319 H     368  UNL368      0.0427
   2941 H          14.4063    8.9314   20.5377 H     368  UNL368      0.0427
   2942 H          16.5009   10.2978   20.4711 H     368  UNL368      0.0241
   2943 H          16.8776    8.5802   20.2648 H     368  UNL368      0.0241
   2944 H          16.8776    9.6658   18.8607 H     368  UNL368      0.0241
   2945 CL         17.2849   10.3927   22.7033 Cl    369  UNL369     -0.1257
   2946 C          16.6040    8.7517   22.7033 C.3   369  UNL369      0.0198
   2947 C          15.0908    8.8050   22.7033 C.3   369  UNL369     -0.0517
   2948 H          16.9742    8.2326   21.8147 H     369  UNL369      0.0427
   2949 H          16.9742    8.2326   23.5918 H     369  UNL369      0.0427
   2950 H          14.6777    7.7913   22.7033 H     369  UNL369      0.0241
   2951 H          14.7122    9.3228   23.5907 H     369  UNL369      0.0241
   2952 H          14.7122    9.3228   21.8159 H     369  UNL369      0.0241
   2953 CL         14.0603    8.6392   27.5568 Cl    370  UNL370     -0.1257
   2954 C          14.2770    9.0830   25.8501 C.3   370  UNL370      0.0198
   2955 C          15.7493    9.1720   25.5078 C.3   370  UNL370     -0.0517
   2956 H          13.7813    8.3239   25.2384 H     370  UNL370      0.0427
   2957 H          13.7813   10.0438   25.6857 H     370  UNL370      0.0427
   2958 H          15.8759    9.4457   24.4554 H     370  UNL370      0.0241
   2959 H          16.2526    9.9308   26.1159 H     370  UNL370      0.0241
   2960 H          16.2526    8.2131   25.6692 H     370  UNL370      0.0241
   2961 CL         17.2849   10.5177   29.0666 Cl    371  UNL371     -0.1257
   2962 C          16.6040    8.8767   29.0666 C.3   371  UNL371      0.0198
   2963 C          15.0908    8.9300   29.0666 C.3   371  UNL371     -0.0517
   2964 H          16.9742    8.3576   28.1780 H     371  UNL371      0.0427
   2965 H          16.9742    8.3576   29.9551 H     371  UNL371      0.0427
   2966 H          14.6777    7.9163   29.0666 H     371  UNL371      0.0241
   2967 H          14.7122    9.4478   29.9540 H     371  UNL371      0.0241
   2968 H          14.7122    9.4478   28.1792 H     371  UNL371      0.0241
   2969 CL         14.4353    7.7626   31.1751 Cl    372  UNL372     -0.1257
   2970 C          14.6520    9.1577   32.2538 C.3   372  UNL372      0.0198
   2971 C          16.1243    9.4376   32.4702 C.3   372  UNL372     -0.0517
   2972 H          14.1563   10.0185   31.7961 H     372  UNL372      0.0427
   2973 H          14.1563    8.9314   33.2020 H     372  UNL372      0.0427
   2974 H          16.2509   10.2978   33.1353 H     372  UNL372      0.0241
   2975 H          16.6276    8.5802   32.9290 H     372  UNL372      0.0241
   2976 H          16.6276    9.6658   31.5249 H     372  UNL372      0.0241
   2977 CL         17.0349   12.8000    2.1058 Cl    373  UNL373     -0.1257
   2978 C          16.3540   12.3870    0.5176 C.3   373  UNL373      0.0198
   2979 C          14.8408   12.4004    0.5692 C.3   373  UNL373     -0.0517
   2980 H          16.7242   13.1163   -0.2084 H     373  UNL373      0.0427
   2981 H          16.7242   11.3964    0.2389 H     373  UNL373      0.0427
   2982 H          14.4277   12.1452   -0.4119 H     373  UNL373      0.0241
   2983 H          14.4622   11.6719    1.2937 H     373  UNL373      0.0241
   2984 H          14.4622   13.3895    0.8470 H     373  UNL373      0.0241
   2985 CL         15.3147   13.1436    4.7434 Cl    374  UNL374     -0.1257
   2986 C          14.0944   12.2619    3.7999 C.3   374  UNL374      0.0198
   2987 C          13.1732   13.2297    3.0876 C.3   374  UNL374     -0.0517
   2988 H          14.6185   11.6248    3.0819 H     374  UNL374      0.0427
   2989 H          13.5315   11.6248    4.4878 H     374  UNL374      0.0427
   2990 H          12.4241   12.6804    2.5084 H     374  UNL374      0.0241
   2991 H          12.6441   13.8709    3.8002 H     374  UNL374      0.0241
   2992 H          13.7297   13.8709    2.3962 H     374  UNL374      0.0241
   2993 CL         16.9922   11.7628    5.7557 Cl    375  UNL375     -0.1257
   2994 C          15.6753   10.5971    6.0078 C.3   375  UNL375      0.0198
   2995 C          15.3324   10.4938    7.4790 C.3   375  UNL375     -0.0517
   2996 H          14.8103   10.9350    5.4302 H     375  UNL375      0.0427
   2997 H          16.0015    9.6295    5.6163 H     375  UNL375      0.0427
   2998 H          14.5208    9.7744    7.6275 H     375  UNL375      0.0241
   2999 H          16.1937   10.1552    8.0641 H     375  UNL375      0.0241
   3000 H          15.0040   11.4590    7.8783 H     375  UNL375      0.0241
   3001 CL         16.9099   12.8000    8.3022 Cl    376  UNL376     -0.1257
   3002 C          16.2290   12.3870    9.8904 C.3   376  UNL376      0.0198
   3003 C          14.7158   12.4004    9.8388 C.3   376  UNL376     -0.0517
   3004 H          16.5992   11.3963   10.1691 H     376  UNL376      0.0427
   3005 H          16.5992   13.1162   10.6164 H     376  UNL376      0.0427
   3006 H          14.3027   12.1452   10.8199 H     376  UNL376      0.0241
   3007 H          14.3372   13.3896    9.5610 H     376  UNL376      0.0241
   3008 H          14.3372   11.6719    9.1143 H     376  UNL376      0.0241
   3009 CL         14.6853   11.3195   12.2100 Cl    377  UNL377     -0.1257
   3010 C          14.9020   12.7146   13.2887 C.3   377  UNL377      0.0198
   3011 C          16.3743   12.9944   13.5051 C.3   377  UNL377     -0.0517
   3012 H          14.4063   13.5753   12.8310 H     377  UNL377      0.0427
   3013 H          14.4063   12.4883   14.2369 H     377  UNL377      0.0427
   3014 H          16.5009   13.8546   14.1702 H     377  UNL377      0.0241
   3015 H          16.8776   12.1371   13.9639 H     377  UNL377      0.0241
   3016 H          16.8776   13.2227   12.5599 H     377  UNL377      0.0241
   3017 CL         17.6809   13.0186   16.2149 Cl    378  UNL378     -0.1257
   3018 C          16.1384   12.1369   16.2149 C.3   378  UNL378      0.0198
   3019 C          14.9739   13.1047   16.2149 C.3   378  UNL378     -0.0517
   3020 H          16.1138   11.4998   15.3263 H     378  UNL378      0.0427
   3021 H          16.1138   11.4998   17.1034 H     378  UNL378      0.0427
   3022 H          14.0270   12.5554   16.2149 H     378  UNL378      0.0241
   3023 H          14.9912   13.7459   17.1023 H     378  UNL378      0.0241
   3024 H          14.9912   13.7459   15.3275 H     378  UNL378      0.0241
   3025 CL         17.3059   13.0186   19.5841 Cl    379  UNL379     -0.1257
   3026 C          15.7634   12.1369   19.5841 C.3   379  UNL379      0.0198
   3027 C          14.5989   13.1047   19.5841 C.3   379  UNL379     -0.0517
   3028 H          15.7388   11.4998   18.6955 H     379  UNL379      0.0427
   3029 H          15.7388   11.4998   20.4726 H     379  UNL379      0.0427
   3030 H          13.6520   12.5554   19.5841 H     379  UNL379      0.0241
   3031 H          14.6162   13.7459   20.4715 H     379  UNL379      0.0241
   3032 H          14.6162   13.7459   18.6967 H     379  UNL379      0.0241
   3033 CL         14.4353   11.1945   21.5676 Cl    380  UNL380     -0.1257
   3034 C          14.6520   12.5896   22.6462 C.3   380  UNL380      0.0198
   3035 C          16.1243   12.8694   22.8626 C.3   380  UNL380     -0.0517
   3036 H          14.1563   13.4503   22.1885 H     380  UNL380      0.0427
   3037 H          14.1563   12.3633   23.5944 H     380  UNL380      0.0427
   3038 H          16.2509   13.7296   23.5277 H     380  UNL380      0.0241
   3039 H          16.6276   12.0121   23.3214 H     380  UNL380      0.0241
   3040 H          16.6276   13.0977   21.9174 H     380  UNL380      0.0241
   3041 CL         16.6599   13.6996   25.9474 Cl    381  UNL381     -0.1257
   3042 C          15.9790   12.0586   25.9474 C.3   381  UNL381      0.0198
   3043 C          14.4658   12.1119   25.9474 C.3   381  UNL381     -0.0517
   3044 H          16.3492   11.5395   25.0588 H     381  UNL381      0.0427
   3045 H          16.3492   11.5395   26.8359 H     381  UNL381      0.0427
   3046 H          14.0527   11.0981   25.9474 H     381  UNL381      0.0241
   3047 H          14.0872   12.6297   26.8348 H     381  UNL381      0.0241
   3048 H          14.0872   12.6297   25.0600 H     381  UNL381      0.0241
   3049 CL         14.3103   11.3195   28.1184 Cl    382  UNL382     -0.1257
   3050 C          14.5270   12.7146   29.1971 C.3   382  UNL382      0.0198
   3051 C          15.9993   12.9944   29.4135 C.3   382  UNL382     -0.0517
   3052 H          14.0313   13.5753   28.7394 H     382  UNL382      0.0427
   3053 H          14.0313   12.4883   30.1453 H     382  UNL382      0.0427
   3054 H          16.1259   13.8546   30.0786 H     382  UNL382      0.0241
   3055 H          16.5026   12.1371   29.8723 H     382  UNL382      0.0241
   3056 H          16.5026   13.2227   28.4683 H     382  UNL382      0.0241
   3057 CL         17.0349   12.8000   33.6726 Cl    383  UNL383     -0.1257
   3058 C          16.3540   12.3870   32.0844 C.3   383  UNL383      0.0198
   3059 C          14.8408   12.4004   32.1360 C.3   383  UNL383     -0.0517
   3060 H          16.7242   13.1163   31.3584 H     383  UNL383      0.0427
   3061 H          16.7242   11.3964   31.8057 H     383  UNL383      0.0427
   3062 H          14.4277   12.1452   31.1549 H     383  UNL383      0.0241
   3063 H          14.4622   11.6719   32.8605 H     383  UNL383      0.0241
   3064 H          14.4622   13.3895   32.4138 H     383  UNL383      0.0241
   3065 CL         16.5129   15.2176   -0.7042 Cl    384  UNL384     -0.1257
   3066 C          15.1096   15.3724    0.3745 C.3   384  UNL384      0.0198
   3067 C          14.7649   16.8309    0.5909 C.3   384  UNL384     -0.0517
   3068 H          14.2716   14.8391   -0.0832 H     384  UNL384      0.0427
   3069 H          15.3576   14.8872    1.3227 H     384  UNL384      0.0427
   3070 H          13.9000   16.9193    1.2560 H     384  UNL384      0.0241
   3071 H          15.5992   17.3716    1.0497 H     384  UNL384      0.0241
   3072 H          14.5146   17.3236   -0.3544 H     384  UNL384      0.0241
   3073 CL         17.3445   15.8500    2.7953 Cl    385  UNL385     -0.1257
   3074 C          15.5849   15.9119    3.0334 C.3   385  UNL385      0.0198
   3075 C          15.2557   16.2839    4.4638 C.3   385  UNL385     -0.0517
   3076 H          15.1758   16.6488    2.3365 H     385  UNL385      0.0427
   3077 H          15.1758   14.9289    2.7838 H     385  UNL385      0.0427
   3078 H          14.1706   16.3203    4.6037 H     385  UNL385      0.0241
   3079 H          15.6616   15.5501    5.1678 H     385  UNL385      0.0241
   3080 H          15.6616   17.2677    4.7211 H     385  UNL385      0.0241
   3081 CL         15.9934   14.6887    6.5776 Cl    386  UNL386     -0.1257
   3082 C          14.4509   13.9912    7.1169 C.3   386  UNL386      0.0198
   3083 C          13.2864   14.7568    6.5249 C.3   386  UNL386     -0.0517
   3084 H          14.4263   12.9437    6.8036 H     386  UNL386      0.0427
   3085 H          14.4263   14.0307    8.2095 H     386  UNL386      0.0427
   3086 H          12.3395   14.3223    6.8609 H     386  UNL386      0.0241
   3087 H          13.3037   15.8069    6.8347 H     386  UNL386      0.0241
   3088 H          13.3037   14.7213    5.4307 H     386  UNL386      0.0241
   3089 CL         16.5433   16.9183   11.1122 Cl    387  UNL387     -0.1257
   3090 C          15.6744   15.8055   10.0336 C.3   387  UNL387      0.0198
   3091 C          14.2523   16.2784    9.8172 C.3   387  UNL387     -0.0517
   3092 H          16.2176   15.7617    9.0853 H     387  UNL387      0.0427
   3093 H          15.6880   14.8124   10.4912 H     387  UNL387      0.0427
   3094 H          13.7227   15.5888    9.1521 H     387  UNL387      0.0241
   3095 H          13.7015   16.3243   10.7624 H     387  UNL387      0.0241
   3096 H          14.2304   17.2723    9.3583 H     387  UNL387      0.0241
   3097 CL         16.7849   17.5065   13.1582 Cl    388  UNL388     -0.1257
   3098 C          16.1040   15.8654   13.1582 C.3   388  UNL388      0.0198
   3099 C          14.5908   15.9188   13.1582 C.3   388  UNL388     -0.0517
   3100 H          16.4742   15.3464   12.2696 H     388  UNL388      0.0427
   3101 H          16.4742   15.3464   14.0467 H     388  UNL388      0.0427
   3102 H          14.1777   14.9050   13.1582 H     388  UNL388      0.0241
   3103 H          14.2122   16.4366   14.0456 H     388  UNL388      0.0241
   3104 H          14.2122   16.4366   12.2708 H     388  UNL388      0.0241
   3105 CL         16.6683   16.9183   15.1417 Cl    389  UNL389     -0.1257
   3106 C          15.7994   15.8055   16.2204 C.3   389  UNL389      0.0198
   3107 C          14.3773   16.2784   16.4368 C.3   389  UNL389     -0.0517
   3108 H          15.8130   14.8123   15.7627 H     389  UNL389      0.0427
   3109 H          16.3425   15.7616   17.1686 H     389  UNL389      0.0427
   3110 H          13.8477   15.5889   17.1019 H     389  UNL389      0.0241
   3111 H          14.3554   17.2723   16.8956 H     389  UNL389      0.0241
   3112 H          13.8266   16.3243   15.4915 H     389  UNL389      0.0241
   3113 CL         16.8772   16.5754   18.2038 Cl    390  UNL390     -0.1257
   3114 C          15.6570   15.6937   19.1473 C.3   390  UNL390      0.0198
   3115 C          14.7357   16.6615   19.8596 C.3   390  UNL390     -0.0517
   3116 H          15.0940   15.0566   18.4594 H     390  UNL390      0.0427
   3117 H          16.1810   15.0566   19.8653 H     390  UNL390      0.0427
   3118 H          13.9866   16.1122   20.4389 H     390  UNL390      0.0241
   3119 H          15.2922   17.3027   20.5511 H     390  UNL390      0.0241
   3120 H          14.2066   17.3027   19.1470 H     390  UNL390      0.0241
   3121 CL         17.3059   16.7004   22.6408 Cl    391  UNL391     -0.1257
   3122 C          15.7634   15.8187   22.6408 C.3   391  UNL391      0.0198
   3123 C          14.5989   16.7865   22.6408 C.3   391  UNL391     -0.0517
   3124 H          15.7388   15.1816   21.7522 H     391  UNL391      0.0427
   3125 H          15.7388   15.1816   23.5293 H     391  UNL391      0.0427
   3126 H          13.6520   16.2372   22.6408 H     391  UNL391      0.0241
   3127 H          14.6162   17.4277   23.5282 H     391  UNL391      0.0241
   3128 H          14.6162   17.4277   21.7534 H     391  UNL391      0.0241
   3129 CL         15.1122   18.0876   24.5618 Cl    392  UNL392     -0.1257
   3130 C          15.6026   16.7637   25.6404 C.3   392  UNL392      0.0198
   3131 C          14.4532   15.8020   25.8568 C.3   392  UNL392     -0.0517
   3132 H          16.4548   16.2535   25.1827 H     392  UNL392      0.0427
   3133 H          15.9252   17.2028   26.5886 H     392  UNL392      0.0427
   3134 H          14.7617   14.9891   26.5219 H     392  UNL392      0.0241
   3135 H          13.5959   16.3055   26.3156 H     392  UNL392      0.0241
   3136 H          14.1248   15.3575   24.9116 H     392  UNL392      0.0241
   3137 CL         17.2849   17.5065   28.9416 Cl    393  UNL393     -0.1257
   3138 C          16.6040   15.8654   28.9416 C.3   393  UNL393      0.0198
   3139 C          15.0908   15.9188   28.9416 C.3   393  UNL393     -0.0517
   3140 H          16.9742   15.3464   28.0530 H     393  UNL393      0.0427
   3141 H          16.9742   15.3464   29.8301 H     393  UNL393      0.0427
   3142 H          14.6777   14.9050   28.9416 H     393  UNL393      0.0241
   3143 H          14.7122   16.4366   29.8290 H     393  UNL393      0.0241
   3144 H          14.7122   16.4366   28.0542 H     393  UNL393      0.0241
   3145 CL         16.5433   17.0433   30.9876 Cl    394  UNL394     -0.1257
   3146 C          15.6744   15.9305   32.0663 C.3   394  UNL394      0.0198
   3147 C          14.2523   16.4034   32.2827 C.3   394  UNL394     -0.0517
   3148 H          15.6880   14.9373   31.6086 H     394  UNL394      0.0427
   3149 H          16.2175   15.8866   33.0145 H     394  UNL394      0.0427
   3150 H          13.7227   15.7139   32.9478 H     394  UNL394      0.0241
   3151 H          14.2304   17.3973   32.7415 H     394  UNL394      0.0241
   3152 H          13.7016   16.4493   31.3374 H     394  UNL394      0.0241
   3153 CL         17.0349   19.9138   -0.8678 Cl    395  UNL395     -0.1257
   3154 C          16.3540   19.5007    0.7204 C.3   395  UNL395      0.0198
   3155 C          14.8408   19.5141    0.6688 C.3   395  UNL395     -0.0517
   3156 H          16.7242   18.5101    0.9991 H     395  UNL395      0.0427
   3157 H          16.7242   20.2300    1.4464 H     395  UNL395      0.0427
   3158 H          14.4277   19.2590    1.6499 H     395  UNL395      0.0241
   3159 H          14.4622   20.5033    0.3910 H     395  UNL395      0.0241
   3160 H          14.4622   18.7857   -0.0557 H     395  UNL395      0.0241
   3161 CL         15.9448   20.7392    3.2661 Cl    396  UNL396     -0.1257
   3162 C          14.4017   20.2131    3.9725 C.3   396  UNL396      0.0198
   3163 C          13.8348   19.0426    3.1971 C.3   396  UNL396     -0.0517
   3164 H          14.5845   19.9365    5.0147 H     396  UNL396      0.0427
   3165 H          13.7136   21.0628    3.9511 H     396  UNL396      0.0427
   3166 H          12.8846   18.7234    3.6372 H     396  UNL396      0.0241
   3167 H          13.6483   19.3120    2.1523 H     396  UNL396      0.0241
   3168 H          14.5180   18.1872    3.2145 H     396  UNL396      0.0241
   3169 CL         13.7478   19.0598    5.1855 Cl    397  UNL397     -0.1257
   3170 C          13.9645   19.5036    6.8921 C.3   397  UNL397      0.0198
   3171 C          15.4368   19.5927    7.2345 C.3   397  UNL397     -0.0517
   3172 H          13.4688   20.4645    7.0566 H     397  UNL397      0.0427
   3173 H          13.4688   18.7446    7.5038 H     397  UNL397      0.0427
   3174 H          15.5634   19.8663    8.2868 H     397  UNL397      0.0241
   3175 H          15.9401   18.6338    7.0731 H     397  UNL397      0.0241
   3176 H          15.9401   20.3514    6.6264 H     397  UNL397      0.0241
   3177 CL         17.4309   20.0698   10.1640 Cl    398  UNL398     -0.1257
   3178 C          15.8884   19.1881   10.1640 C.3   398  UNL398      0.0198
   3179 C          14.7239   20.1559   10.1640 C.3   398  UNL398     -0.0517
   3180 H          15.8638   18.5510    9.2754 H     398  UNL398      0.0427
   3181 H          15.8638   18.5510   11.0525 H     398  UNL398      0.0427
   3182 H          13.7770   19.6066   10.1640 H     398  UNL398      0.0241
   3183 H          14.7412   20.7971   11.0514 H     398  UNL398      0.0241
   3184 H          14.7412   20.7971    9.2766 H     398  UNL398      0.0241
   3185 CL         14.5603   18.4333   14.1689 Cl    399  UNL399     -0.1257
   3186 C          14.7770   19.8284   13.0902 C.3   399  UNL399      0.0198
   3187 C          16.2493   20.1082   12.8739 C.3   399  UNL399     -0.0517
   3188 H          14.2813   19.6020   12.1420 H     399  UNL399      0.0427
   3189 H          14.2813   20.6891   13.5479 H     399  UNL399      0.0427
   3190 H          16.3759   20.9684   12.2087 H     399  UNL399      0.0241
   3191 H          16.7526   20.3365   13.8191 H     399  UNL399      0.0241
   3192 H          16.7526   19.2509   12.4150 H     399  UNL399      0.0241
   3193 CL         17.6809   20.1323   16.2149 Cl    400  UNL400     -0.1257
   3194 C          16.1384   19.2506   16.2149 C.3   400  UNL400      0.0198
   3195 C          14.9739   20.2184   16.2149 C.3   400  UNL400     -0.0517
   3196 H          16.1138   18.6135   15.3263 H     400  UNL400      0.0427
   3197 H          16.1138   18.6135   17.1034 H     400  UNL400      0.0427
   3198 H          14.0270   19.6691   16.2149 H     400  UNL400      0.0241
   3199 H          14.9912   20.8596   17.1023 H     400  UNL400      0.0241
   3200 H          14.9912   20.8596   15.3275 H     400  UNL400      0.0241
   3201 CL         17.2849   21.0634   19.5216 Cl    401  UNL401     -0.1257
   3202 C          16.6040   19.4223   19.5216 C.3   401  UNL401      0.0198
   3203 C          15.0908   19.4757   19.5216 C.3   401  UNL401     -0.0517
   3204 H          16.9742   18.9033   18.6330 H     401  UNL401      0.0427
   3205 H          16.9742   18.9033   20.4101 H     401  UNL401      0.0427
   3206 H          14.6777   18.4619   19.5216 H     401  UNL401      0.0241
   3207 H          14.7122   19.9935   20.4090 H     401  UNL401      0.0241
   3208 H          14.7122   19.9935   18.6342 H     401  UNL401      0.0241
   3209 CL         17.8059   20.0073   22.7033 Cl    402  UNL402     -0.1257
   3210 C          16.2634   19.1256   22.7033 C.3   402  UNL402      0.0198
   3211 C          15.0989   20.0934   22.7033 C.3   402  UNL402     -0.0517
   3212 H          16.2388   18.4885   21.8147 H     402  UNL402      0.0427
   3213 H          16.2388   18.4885   23.5918 H     402  UNL402      0.0427
   3214 H          14.1520   19.5441   22.7033 H     402  UNL402      0.0241
   3215 H          15.1162   20.7346   23.5907 H     402  UNL402      0.0241
   3216 H          15.1162   20.7346   21.8159 H     402  UNL402      0.0241
   3217 CL         17.3059   20.1323   26.0724 Cl    403  UNL403     -0.1257
   3218 C          15.7634   19.2506   26.0724 C.3   403  UNL403      0.0198
   3219 C          14.5989   20.2184   26.0724 C.3   403  UNL403     -0.0517
   3220 H          15.7388   18.6135   25.1838 H     403  UNL403      0.0427
   3221 H          15.7388   18.6135   26.9609 H     403  UNL403      0.0427
   3222 H          13.6520   19.6691   26.0724 H     403  UNL403      0.0241
   3223 H          14.6162   20.8596   26.9598 H     403  UNL403      0.0241
   3224 H          14.6162   20.8596   25.1850 H     403  UNL403      0.0241
   3225 CL         14.3103   18.4333   30.0773 Cl    404  UNL404     -0.1257
   3226 C          14.5270   19.8284   28.9986 C.3   404  UNL404      0.0198
   3227 C          15.9993   20.1082   28.7822 C.3   404  UNL404     -0.0517
   3228 H          14.0313   19.6020   28.0504 H     404  UNL404      0.0427
   3229 H          14.0313   20.6891   29.4563 H     404  UNL404      0.0427
   3230 H          16.1259   20.9684   28.1171 H     404  UNL404      0.0241
   3231 H          16.5026   20.3365   29.7275 H     404  UNL404      0.0241
   3232 H          16.5026   19.2509   28.3234 H     404  UNL404      0.0241
   3233 CL         17.0349   21.4384   32.3108 Cl    405  UNL405     -0.1257
   3234 C          16.3540   19.7973   32.3108 C.3   405  UNL405      0.0198
   3235 C          14.8408   19.8507   32.3108 C.3   405  UNL405     -0.0517
   3236 H          16.7242   19.2783   31.4222 H     405  UNL405      0.0427
   3237 H          16.7242   19.2783   33.1993 H     405  UNL405      0.0427
   3238 H          14.4277   18.8369   32.3108 H     405  UNL405      0.0241
   3239 H          14.4622   20.3685   33.1982 H     405  UNL405      0.0241
   3240 H          14.4622   20.3685   31.4234 H     405  UNL405      0.0241
   3241 CL         14.0603   18.1833   36.6282 Cl    406  UNL406     -0.1257
   3242 C          14.2770   19.5784   35.5495 C.3   406  UNL406      0.0198
   3243 C          15.7493   19.8582   35.3331 C.3   406  UNL406     -0.0517
   3244 H          13.7813   19.3520   34.6012 H     406  UNL406      0.0427
   3245 H          13.7813   20.4391   36.0071 H     406  UNL406      0.0427
   3246 H          15.8759   20.7184   34.6680 H     406  UNL406      0.0241
   3247 H          16.2526   20.0865   36.2783 H     406  UNL406      0.0241
   3248 H          16.2526   19.0009   34.8743 H     406  UNL406      0.0241
   3249 CL         14.0603   21.8652   -0.7667 Cl    407  UNL407     -0.1257
   3250 C          14.2770   23.2602    0.3120 C.3   407  UNL407      0.0198
   3251 C          15.7493   23.5401    0.5284 C.3   407  UNL407     -0.0517
   3252 H          13.7813   24.1210   -0.1457 H     407  UNL407      0.0427
   3253 H          13.7813   23.0340    1.2602 H     407  UNL407      0.0427
   3254 H          15.8759   24.4003    1.1935 H     407  UNL407      0.0241
   3255 H          16.2526   22.6827    0.9872 H     407  UNL407      0.0241
   3256 H          16.2526   23.7683   -0.4169 H     407  UNL407      0.0241
   3257 CL         16.9099   24.9952    3.5507 Cl    408  UNL408     -0.1257
   3258 C          16.2290   23.3542    3.5507 C.3   408  UNL408      0.0198
   3259 C          14.7158   23.4075    3.5507 C.3   408  UNL408     -0.0517
   3260 H          16.5992   22.8351    2.6621 H     408  UNL408      0.0427
   3261 H          16.5992   22.8351    4.4392 H     408  UNL408      0.0427
   3262 H          14.3027   22.3938    3.5507 H     408  UNL408      0.0241
   3263 H          14.3372   23.9254    4.4381 H     408  UNL408      0.0241
   3264 H          14.3372   23.9254    2.6633 H     408  UNL408      0.0241
   3265 CL         14.0603   21.9902    7.8680 Cl    409  UNL409     -0.1257
   3266 C          14.2770   23.3852    6.7894 C.3   409  UNL409      0.0198
   3267 C          15.7493   23.6651    6.5730 C.3   409  UNL409     -0.0517
   3268 H          13.7813   23.1589    5.8411 H     409  UNL409      0.0427
   3269 H          13.7813   24.2459    7.2470 H     409  UNL409      0.0427
   3270 H          15.8759   24.5253    5.9079 H     409  UNL409      0.0241
   3271 H          16.2526   23.8934    7.5182 H     409  UNL409      0.0241
   3272 H          16.2526   22.8077    6.1142 H     409  UNL409      0.0241
   3273 CL         17.0349   24.6202    9.7890 Cl    410  UNL410     -0.1257
   3274 C          16.3540   22.9792    9.7890 C.3   410  UNL410      0.0198
   3275 C          14.8408   23.0325    9.7890 C.3   410  UNL410     -0.0517
   3276 H          16.7242   22.4601    8.9004 H     410  UNL410      0.0427
   3277 H          16.7242   22.4601   10.6775 H     410  UNL410      0.0427
   3278 H          14.4277   22.0188    9.7890 H     410  UNL410      0.0241
   3279 H          14.4622   23.5504   10.6764 H     410  UNL410      0.0241
   3280 H          14.4622   23.5504    8.9016 H     410  UNL410      0.0241
   3281 CL         16.9099   24.6202   13.0332 Cl    411  UNL411     -0.1257
   3282 C          16.2290   22.9792   13.0332 C.3   411  UNL411      0.0198
   3283 C          14.7158   23.0325   13.0332 C.3   411  UNL411     -0.0517
   3284 H          16.5992   22.4601   12.1446 H     411  UNL411      0.0427
   3285 H          16.5992   22.4601   13.9217 H     411  UNL411      0.0427
   3286 H          14.3027   22.0188   13.0332 H     411  UNL411      0.0241
   3287 H          14.3372   23.5504   13.9206 H     411  UNL411      0.0241
   3288 H          14.3372   23.5504   12.1458 H     411  UNL411      0.0241
   3289 CL         16.6683   24.0320   15.0167 Cl    412  UNL412     -0.1257
   3290 C          15.7994   22.9193   16.0954 C.3   412  UNL412      0.0198
   3291 C          14.3773   23.3922   16.3118 C.3   412  UNL412     -0.0517
   3292 H          15.8130   21.9261   15.6377 H     412  UNL412      0.0427
   3293 H          16.3425   22.8754   17.0436 H     412  UNL412      0.0427
   3294 H          13.8477   22.7026   16.9769 H     412  UNL412      0.0241
   3295 H          14.3554   24.3861   16.7706 H     412  UNL412      0.0241
   3296 H          13.8266   23.4380   15.3665 H     412  UNL412      0.0241
   3297 CL         17.1504   22.3485   19.5216 Cl    413  UNL413     -0.1257
   3298 C          15.3791   22.4870   19.5216 C.3   413  UNL413      0.0198
   3299 C          14.9605   23.9422   19.5216 C.3   413  UNL413     -0.0517
   3300 H          15.0004   21.9741   18.6330 H     413  UNL413      0.0427
   3301 H          15.0004   21.9741   20.4101 H     413  UNL413      0.0427
   3302 H          13.8687   24.0206   19.5216 H     413  UNL413      0.0241
   3303 H          15.3355   24.4626   20.4090 H     413  UNL413      0.0241
   3304 H          15.3355   24.4626   18.6342 H     413  UNL413      0.0241
   3305 CL         16.7933   22.4420   23.7231 Cl    414  UNL414     -0.1257
   3306 C          15.9244   23.2059   22.3748 C.3   414  UNL414      0.0198
   3307 C          14.5023   23.5343   22.7779 C.3   414  UNL414     -0.0517
   3308 H          16.4676   24.1126   22.0937 H     414  UNL414      0.0427
   3309 H          15.9380   22.5130   21.5288 H     414  UNL414      0.0427
   3310 H          13.9727   24.0044   21.9432 H     414  UNL414      0.0241
   3311 H          13.9515   22.6311   23.0602 H     414  UNL414      0.0241
   3312 H          14.4804   24.2285   23.6244 H     414  UNL414      0.0241
   3313 CL         16.0131   22.3353   25.9275 Cl    415  UNL415     -0.1257
   3314 C          14.3005   22.6420   26.2873 C.3   415  UNL415      0.0198
   3315 C          13.9197   24.0533   25.8923 C.3   415  UNL415     -0.0517
   3316 H          13.7034   21.9100   25.7361 H     415  UNL415      0.0427
   3317 H          14.1470   22.4838   27.3584 H     415  UNL415      0.0427
   3318 H          12.8638   24.2358   26.1165 H     415  UNL415      0.0241
   3319 H          14.5129   24.7923   26.4408 H     415  UNL415      0.0241
   3320 H          14.0699   24.2193   24.8205 H     415  UNL415      0.0241
   3321 CL         17.3445   23.0888   30.0720 Cl    416  UNL416     -0.1257
   3322 C          15.5849   23.1507   29.8339 C.3   416  UNL416      0.0198
   3323 C          15.2557   23.5227   28.4035 C.3   416  UNL416     -0.0517
   3324 H          15.1758   22.1676   30.0835 H     416  UNL416      0.0427
   3325 H          15.1758   23.8875   30.5307 H     416  UNL416      0.0427
   3326 H          14.1706   23.5591   28.2635 H     416  UNL416      0.0241
   3327 H          15.6616   24.5065   28.1462 H     416  UNL416      0.0241
   3328 H          15.6616   22.7888   27.6995 H     416  UNL416      0.0241
   3329 CL         16.2434   23.6583   32.0408 Cl    417  UNL417     -0.1257
   3330 C          14.7009   22.8533   32.4007 C.3   417  UNL417      0.0198
   3331 C          13.5364   23.7369   32.0057 C.3   417  UNL417     -0.0517
   3332 H          14.6763   21.9091   31.8494 H     417  UNL417      0.0427
   3333 H          14.6763   22.6343   33.4718 H     417  UNL417      0.0427
   3334 H          12.5895   23.2354   32.2299 H     417  UNL417      0.0241
   3335 H          13.5537   24.6844   32.5542 H     417  UNL417      0.0241
   3336 H          13.5537   23.9601   30.9339 H     417  UNL417      0.0241
   3337 CL         17.4695   22.2347   35.4925 Cl    418  UNL418     -0.1257
   3338 C          15.7099   22.4807   35.4925 C.3   418  UNL418      0.0198
   3339 C          15.3807   23.9587   35.4925 C.3   418  UNL418     -0.0517
   3340 H          15.3008   21.9918   34.6039 H     418  UNL418      0.0427
   3341 H          15.3008   21.9918   36.3810 H     418  UNL418      0.0427
   3342 H          14.2956   24.1033   35.4925 H     418  UNL418      0.0241
   3343 H          15.7866   24.4554   36.3799 H     418  UNL418      0.0241
   3344 H          15.7866   24.4554   34.6051 H     418  UNL418      0.0241
   3345 CL         17.0349   28.1771    0.4940 Cl    419  UNL419     -0.1257
   3346 C          16.3540   26.5361    0.4940 C.3   419  UNL419      0.0198
   3347 C          14.8408   26.5894    0.4940 C.3   419  UNL419     -0.0517
   3348 H          16.7242   26.0170   -0.3946 H     419  UNL419      0.0427
   3349 H          16.7242   26.0170    1.3825 H     419  UNL419      0.0427
   3350 H          14.4277   25.5757    0.4940 H     419  UNL419      0.0241
   3351 H          14.4622   27.1072    1.3814 H     419  UNL419      0.0241
   3352 H          14.4622   27.1072   -0.3934 H     419  UNL419      0.0241
   3353 CL         15.4934   27.0901    3.8831 Cl    420  UNL420     -0.1257
   3354 C          13.9509   26.2852    3.5233 C.3   420  UNL420      0.0198
   3355 C          12.7864   27.1688    3.9183 C.3   420  UNL420     -0.0517
   3356 H          13.9263   26.0662    2.4521 H     420  UNL420      0.0427
   3357 H          13.9263   25.3410    4.0745 H     420  UNL420      0.0427
   3358 H          11.8395   26.6673    3.6941 H     420  UNL420      0.0241
   3359 H          12.8037   27.3920    4.9901 H     420  UNL420      0.0241
   3360 H          12.8037   28.1163    3.3698 H     420  UNL420      0.0241
   3361 CL         16.9099   28.1771    6.6074 Cl    421  UNL421     -0.1257
   3362 C          16.2290   26.5361    6.6074 C.3   421  UNL421      0.0198
   3363 C          14.7158   26.5894    6.6074 C.3   421  UNL421     -0.0517
   3364 H          16.5992   26.0170    5.7188 H     421  UNL421      0.0427
   3365 H          16.5992   26.0170    7.4959 H     421  UNL421      0.0427
   3366 H          14.3027   25.5757    6.6074 H     421  UNL421      0.0241
   3367 H          14.3372   27.1072    7.4948 H     421  UNL421      0.0241
   3368 H          14.3372   27.1072    5.7200 H     421  UNL421      0.0241
   3369 CL         14.4353   25.5470    8.9034 Cl    422  UNL422     -0.1257
   3370 C          14.6520   26.9421    9.9820 C.3   422  UNL422      0.0198
   3371 C          16.1243   27.2220   10.1984 C.3   422  UNL422     -0.0517
   3372 H          14.1563   27.8029    9.5243 H     422  UNL422      0.0427
   3373 H          14.1563   26.7158   10.9302 H     422  UNL422      0.0427
   3374 H          16.2509   28.0822   10.8635 H     422  UNL422      0.0241
   3375 H          16.6276   26.3646   10.6572 H     422  UNL422      0.0241
   3376 H          16.6276   27.4502    9.2532 H     422  UNL422      0.0241
   3377 CL         14.5603   26.5486   14.9551 Cl    423  UNL423     -0.1257
   3378 C          14.7770   26.9924   13.2484 C.3   423  UNL423      0.0198
   3379 C          16.2493   27.0814   12.9061 C.3   423  UNL423     -0.0517
   3380 H          14.2813   26.2333   12.6367 H     423  UNL423      0.0427
   3381 H          14.2813   27.9532   13.0840 H     423  UNL423      0.0427
   3382 H          16.3759   27.3551   11.8537 H     423  UNL423      0.0241
   3383 H          16.7526   27.8402   13.5142 H     423  UNL423      0.0241
   3384 H          16.7526   26.1225   13.0675 H     423  UNL423      0.0241
   3385 CL         17.6809   27.2461   16.3399 Cl    424  UNL424     -0.1257
   3386 C          16.1384   26.3644   16.3399 C.3   424  UNL424      0.0198
   3387 C          14.9739   27.3322   16.3399 C.3   424  UNL424     -0.0517
   3388 H          16.1138   25.7273   15.4513 H     424  UNL424      0.0427
   3389 H          16.1138   25.7273   17.2284 H     424  UNL424      0.0427
   3390 H          14.0270   26.7829   16.3399 H     424  UNL424      0.0241
   3391 H          14.9912   27.9734   17.2273 H     424  UNL424      0.0241
   3392 H          14.9912   27.9734   15.4525 H     424  UNL424      0.0241
   3393 CL         17.2849   27.0275   21.0084 Cl    425  UNL425     -0.1257
   3394 C          16.6040   26.6145   19.4202 C.3   425  UNL425      0.0198
   3395 C          15.0908   26.6279   19.4718 C.3   425  UNL425     -0.0517
   3396 H          16.9742   27.3438   18.6942 H     425  UNL425      0.0427
   3397 H          16.9742   25.6239   19.1415 H     425  UNL425      0.0427
   3398 H          14.6777   26.3727   18.4907 H     425  UNL425      0.0241
   3399 H          14.7122   25.8994   20.1963 H     425  UNL425      0.0241
   3400 H          14.7122   27.6171   19.7496 H     425  UNL425      0.0241
   3401 CL         17.1272   27.2461   24.0210 Cl    426  UNL426     -0.1257
   3402 C          15.9069   26.3644   23.0775 C.3   426  UNL426      0.0198
   3403 C          14.9857   27.3322   22.3652 C.3   426  UNL426     -0.0517
   3404 H          16.4310   25.7273   22.3595 H     426  UNL426      0.0427
   3405 H          15.3440   25.7273   23.7653 H     426  UNL426      0.0427
   3406 H          14.2366   26.7829   21.7860 H     426  UNL426      0.0241
   3407 H          14.4566   27.9734   23.0778 H     426  UNL426      0.0241
   3408 H          15.5422   27.9734   21.6737 H     426  UNL426      0.0241
   3409 CL         17.0647   27.1836   27.2027 Cl    427  UNL427     -0.1257
   3410 C          15.8444   26.3019   26.2592 C.3   427  UNL427      0.0198
   3411 C          14.9232   27.2697   25.5469 C.3   427  UNL427     -0.0517
   3412 H          16.3685   25.6648   25.5411 H     427  UNL427      0.0427
   3413 H          15.2815   25.6648   26.9470 H     427  UNL427      0.0427
   3414 H          14.1741   26.7204   24.9677 H     427  UNL427      0.0241
   3415 H          14.3941   27.9109   26.2595 H     427  UNL427      0.0241
   3416 H          15.4797   27.9109   24.8554 H     427  UNL427      0.0241
   3417 CL         15.2433   27.8222   28.0990 Cl    428  UNL428     -0.1257
   3418 C          13.6134   27.2289   28.4837 C.3   428  UNL428      0.0198
   3419 C          13.6141   26.4973   29.8094 C.3   428  UNL428     -0.0517
   3420 H          12.9397   28.0898   28.5157 H     428  UNL428      0.0427
   3421 H          13.2959   26.5656   27.6743 H     428  UNL428      0.0427
   3422 H          12.6074   26.1345   30.0405 H     428  UNL428      0.0241
   3423 H          14.2861   25.6332   29.7851 H     428  UNL428      0.0241
   3424 H          13.9303   27.1554   30.6253 H     428  UNL428      0.0241
   3425 CL         17.6809   27.1211   32.1233 Cl    429  UNL429     -0.1257
   3426 C          16.1384   26.2394   32.1233 C.3   429  UNL429      0.0198
   3427 C          14.9739   27.2072   32.1233 C.3   429  UNL429     -0.0517
   3428 H          16.1138   25.6023   31.2347 H     429  UNL429      0.0427
   3429 H          16.1138   25.6023   33.0118 H     429  UNL429      0.0427
   3430 H          14.0270   26.6579   32.1233 H     429  UNL429      0.0241
   3431 H          14.9912   27.8484   33.0107 H     429  UNL429      0.0241
   3432 H          14.9912   27.8484   31.2359 H     429  UNL429      0.0241
   3433 CL         14.4353   29.1039    1.4422 Cl    430  UNL430     -0.1257
   3434 C          14.6520   30.4990    0.3635 C.3   430  UNL430      0.0198
   3435 C          16.1243   30.7788    0.1471 C.3   430  UNL430     -0.0517
   3436 H          14.1563   30.2727   -0.5847 H     430  UNL430      0.0427
   3437 H          14.1563   31.3597    0.8211 H     430  UNL430      0.0427
   3438 H          16.2509   31.6390   -0.5180 H     430  UNL430      0.0241
   3439 H          16.6276   31.0071    1.0924 H     430  UNL430      0.0241
   3440 H          16.6276   29.9215   -0.3117 H     430  UNL430      0.0241
   3441 CL         15.3915   32.7107    3.3178 Cl    431  UNL431     -0.1257
   3442 C          15.4676   30.9959    2.8590 C.3   431  UNL431      0.0198
   3443 C          15.2662   30.1125    4.0721 C.3   431  UNL431     -0.0517
   3444 H          14.6910   30.8118    2.1113 H     431  UNL431      0.0427
   3445 H          16.4441   30.8118    2.4024 H     431  UNL431      0.0427
   3446 H          15.3142   29.0578    3.7828 H     431  UNL431      0.0241
   3447 H          16.0407   30.2906    4.8254 H     431  UNL431      0.0241
   3448 H          14.2899   30.2906    4.5346 H     431  UNL431      0.0241
   3449 CL         14.4353   28.9789    5.6592 Cl    432  UNL432     -0.1257
   3450 C          14.6520   30.3740    6.7378 C.3   432  UNL432      0.0198
   3451 C          16.1243   30.6538    6.9542 C.3   432  UNL432     -0.0517
   3452 H          14.1563   31.2347    6.2801 H     432  UNL432      0.0427
   3453 H          14.1563   30.1477    7.6860 H     432  UNL432      0.0427
   3454 H          16.2509   31.5140    7.6193 H     432  UNL432      0.0241
   3455 H          16.6276   29.7965    7.4130 H     432  UNL432      0.0241
   3456 H          16.6276   30.8821    6.0090 H     432  UNL432      0.0241
   3457 CL         17.0349   31.8590    9.9140 Cl    433  UNL433     -0.1257
   3458 C          16.3540   30.2180    9.9140 C.3   433  UNL433      0.0198
   3459 C          14.8408   30.2713    9.9140 C.3   433  UNL433     -0.0517
   3460 H          16.7242   29.6989    9.0254 H     433  UNL433      0.0427
   3461 H          16.7242   29.6989   10.8025 H     433  UNL433      0.0427
   3462 H          14.4277   29.2575    9.9140 H     433  UNL433      0.0241
   3463 H          14.4622   30.7891   10.8014 H     433  UNL433      0.0241
   3464 H          14.4622   30.7891    9.0266 H     433  UNL433      0.0241
   3465 CL         17.0349   31.7340   13.1582 Cl    434  UNL434     -0.1257
   3466 C          16.3540   30.0930   13.1582 C.3   434  UNL434      0.0198
   3467 C          14.8408   30.1463   13.1582 C.3   434  UNL434     -0.0517
   3468 H          16.7242   29.5739   12.2696 H     434  UNL434      0.0427
   3469 H          16.7242   29.5739   14.0467 H     434  UNL434      0.0427
   3470 H          14.4277   29.1325   13.1582 H     434  UNL434      0.0241
   3471 H          14.4622   30.6641   14.0456 H     434  UNL434      0.0241
   3472 H          14.4622   30.6641   12.2708 H     434  UNL434      0.0241
   3473 CL         16.5433   31.2708   15.2667 Cl    435  UNL435     -0.1257
   3474 C          15.6744   30.1581   16.3454 C.3   435  UNL435      0.0198
   3475 C          14.2523   30.6309   16.5618 C.3   435  UNL435     -0.0517
   3476 H          15.6880   29.1649   15.8877 H     435  UNL435      0.0427
   3477 H          16.2175   30.1142   17.2936 H     435  UNL435      0.0427
   3478 H          13.7227   29.9414   17.2269 H     435  UNL435      0.0241
   3479 H          14.2304   31.6249   17.0206 H     435  UNL435      0.0241
   3480 H          13.7016   30.6768   15.6165 H     435  UNL435      0.0241
   3481 CL         14.4353   28.9789   20.4698 Cl    436  UNL436     -0.1257
   3482 C          14.6520   30.3740   19.3911 C.3   436  UNL436      0.0198
   3483 C          16.1243   30.6538   19.1747 C.3   436  UNL436     -0.0517
   3484 H          14.1563   30.1477   18.4428 H     436  UNL436      0.0427
   3485 H          14.1563   31.2347   19.8487 H     436  UNL436      0.0427
   3486 H          16.2509   31.5140   18.5096 H     436  UNL436      0.0241
   3487 H          16.6276   30.8821   20.1199 H     436  UNL436      0.0241
   3488 H          16.6276   29.7965   18.7159 H     436  UNL436      0.0241
   3489 CL         16.2434   30.4947   22.2887 Cl    437  UNL437     -0.1257
   3490 C          14.7009   30.3781   23.1626 C.3   437  UNL437      0.0198
   3491 C          13.5364   30.5061   22.2033 C.3   437  UNL437     -0.0517
   3492 H          14.6763   29.4130   23.6765 H     437  UNL437      0.0427
   3493 H          14.6763   31.1744   23.9117 H     437  UNL437      0.0427
   3494 H          12.5895   30.4334   22.7478 H     437  UNL437      0.0241
   3495 H          13.5537   31.4706   21.6852 H     437  UNL437      0.0241
   3496 H          13.5537   29.7114   21.4503 H     437  UNL437      0.0241
   3497 CL         16.3953   30.6780   27.8710 Cl    438  UNL438     -0.1257
   3498 C          16.0070   29.7963   26.3781 C.3   438  UNL438      0.0198
   3499 C          15.7140   30.7641   25.2511 C.3   438  UNL438     -0.0517
   3500 H          16.8608   29.1592   26.1307 H     438  UNL438      0.0427
   3501 H          15.1410   29.1592   26.5780 H     438  UNL438      0.0427
   3502 H          15.4756   30.2148   24.3347 H     438  UNL438      0.0241
   3503 H          14.8595   31.4053   25.4912 H     438  UNL438      0.0241
   3504 H          16.5771   31.4053   25.0445 H     438  UNL438      0.0241
   3505 CL         17.2522   30.8030   30.3844 Cl    439  UNL439     -0.1257
   3506 C          16.0319   29.9213   29.4408 C.3   439  UNL439      0.0198
   3507 C          15.1107   30.8891   28.7285 C.3   439  UNL439     -0.0517
   3508 H          16.5560   29.2842   28.7228 H     439  UNL439      0.0427
   3509 H          15.4690   29.2842   30.1287 H     439  UNL439      0.0427
   3510 H          14.3616   30.3398   28.1493 H     439  UNL439      0.0241
   3511 H          14.5816   31.5303   29.4411 H     439  UNL439      0.0241
   3512 H          15.6672   31.5303   28.0371 H     439  UNL439      0.0241
   3513 CL         16.2434   30.2351   32.4704 Cl    440  UNL440     -0.1257
   3514 C          14.7009   30.7628   31.7640 C.3   440  UNL440      0.0198
   3515 C          13.5364   30.1836   32.5394 C.3   440  UNL440     -0.0517
   3516 H          14.6763   31.8560   31.7854 H     440  UNL440      0.0427
   3517 H          14.6763   30.4323   30.7219 H     440  UNL440      0.0427
   3518 H          12.5895   30.5123   32.0993 H     440  UNL440      0.0241
   3519 H          13.5537   29.0889   32.5220 H     440  UNL440      0.0241
   3520 H          13.5537   30.5108   33.5841 H     440  UNL440      0.0241
   3521 CL         16.6599   35.6659   -0.8185 Cl    441  UNL441     -0.1257
   3522 C          15.9790   34.0248   -0.8185 C.3   441  UNL441      0.0198
   3523 C          14.4658   34.0782   -0.8185 C.3   441  UNL441     -0.0517
   3524 H          16.3492   33.5058   -1.7071 H     441  UNL441      0.0427
   3525 H          16.3492   33.5058    0.0700 H     441  UNL441      0.0427
   3526 H          14.0527   33.0644   -0.8185 H     441  UNL441      0.0241
   3527 H          14.0872   34.5960    0.0689 H     441  UNL441      0.0241
   3528 H          14.0872   34.5960   -1.7059 H     441  UNL441      0.0241
   3529 CL         15.8999   35.0279    2.4728 Cl    442  UNL442     -0.1257
   3530 C          14.5239   33.9412    2.7601 C.3   442  UNL442      0.0198
   3531 C          14.2281   33.8397    4.2416 C.3   442  UNL442     -0.0517
   3532 H          13.6611   34.3387    2.2183 H     442  UNL442      0.0427
   3533 H          14.7760   32.9608    2.3464 H     442  UNL442      0.0427
   3534 H          13.3798   33.1691    4.4118 H     442  UNL442      0.0241
   3535 H          15.0875   33.4416    4.7912 H     442  UNL442      0.0241
   3536 H          13.9740   34.8178    4.6632 H     442  UNL442      0.0241
   3537 CL         17.2195   33.0929    6.7324 Cl    443  UNL443     -0.1257
   3538 C          15.4599   33.3389    6.7324 C.3   443  UNL443      0.0198
   3539 C          15.1307   34.8168    6.7324 C.3   443  UNL443     -0.0517
   3540 H          15.0508   32.8499    5.8438 H     443  UNL443      0.0427
   3541 H          15.0508   32.8499    7.6209 H     443  UNL443      0.0427
   3542 H          14.0456   34.9615    6.7324 H     443  UNL443      0.0241
   3543 H          15.5366   35.3135    7.6198 H     443  UNL443      0.0241
   3544 H          15.5366   35.3135    5.8450 H     443  UNL443      0.0241
   3545 CL         15.4872   35.6220   11.1747 Cl    444  UNL444     -0.1257
   3546 C          15.9776   34.2981   10.0961 C.3   444  UNL444      0.0198
   3547 C          14.8282   33.3364    9.8797 C.3   444  UNL444     -0.0517
   3548 H          16.3002   34.7372    9.1478 H     444  UNL444      0.0427
   3549 H          16.8298   33.7879   10.5537 H     444  UNL444      0.0427
   3550 H          15.1367   32.5235    9.2146 H     444  UNL444      0.0241
   3551 H          14.4998   32.8919   10.8249 H     444  UNL444      0.0241
   3552 H          13.9709   33.8399    9.4208 H     444  UNL444      0.0241
   3553 CL         14.4353   32.2730   13.0332 Cl    445  UNL445     -0.1257
   3554 C          14.6520   34.0364   13.0332 C.3   445  UNL445      0.0198
   3555 C          16.1243   34.3901   13.0332 C.3   445  UNL445     -0.0517
   3556 H          14.1563   34.4374   12.1446 H     445  UNL445      0.0427
   3557 H          14.1563   34.4374   13.9217 H     445  UNL445      0.0427
   3558 H          16.2509   35.4775   13.0332 H     445  UNL445      0.0241
   3559 H          16.6276   33.9926   13.9206 H     445  UNL445      0.0241
   3560 H          16.6276   33.9926   12.1458 H     445  UNL445      0.0241
   3561 CL         16.7849   35.5409   16.4024 Cl    446  UNL446     -0.1257
   3562 C          16.1040   33.8998   16.4024 C.3   446  UNL446      0.0198
   3563 C          14.5908   33.9532   16.4024 C.3   446  UNL446     -0.0517
   3564 H          16.4742   33.3808   15.5138 H     446  UNL446      0.0427
   3565 H          16.4742   33.3808   17.2909 H     446  UNL446      0.0427
   3566 H          14.1777   32.9394   16.4024 H     446  UNL446      0.0241
   3567 H          14.2122   34.4710   17.2898 H     446  UNL446      0.0241
   3568 H          14.2122   34.4710   15.5150 H     446  UNL446      0.0241
   3569 CL         17.2195   33.0304   19.4591 Cl    447  UNL447     -0.1257
   3570 C          15.4599   33.2764   19.4591 C.3   447  UNL447      0.0198
   3571 C          15.1307   34.7543   19.4591 C.3   447  UNL447     -0.0517
   3572 H          15.0508   32.7874   18.5705 H     447  UNL447      0.0427
   3573 H          15.0508   32.7874   20.3476 H     447  UNL447      0.0427
   3574 H          14.0456   34.8990   19.4591 H     447  UNL447      0.0241
   3575 H          15.5366   35.2510   20.3465 H     447  UNL447      0.0241
   3576 H          15.5366   35.2510   18.5717 H     447  UNL447      0.0241
   3577 CL         17.3059   34.2973   22.7033 Cl    448  UNL448     -0.1257
   3578 C          15.7634   33.4156   22.7033 C.3   448  UNL448      0.0198
   3579 C          14.5989   34.3834   22.7033 C.3   448  UNL448     -0.0517
   3580 H          15.7388   32.7785   21.8147 H     448  UNL448      0.0427
   3581 H          15.7388   32.7785   23.5918 H     448  UNL448      0.0427
   3582 H          13.6520   33.8341   22.7033 H     448  UNL448      0.0241
   3583 H          14.6162   35.0246   23.5907 H     448  UNL448      0.0241
   3584 H          14.6162   35.0246   21.8159 H     448  UNL448      0.0241
   3585 CL         16.5433   34.8277   26.9581 Cl    449  UNL449     -0.1257
   3586 C          15.6744   33.7149   25.8795 C.3   449  UNL449      0.0198
   3587 C          14.2523   34.1878   25.6631 C.3   449  UNL449     -0.0517
   3588 H          16.2176   33.6711   24.9312 H     449  UNL449      0.0427
   3589 H          15.6880   32.7218   26.3371 H     449  UNL449      0.0427
   3590 H          13.7227   33.4982   24.9980 H     449  UNL449      0.0241
   3591 H          13.7016   34.2337   26.6083 H     449  UNL449      0.0241
   3592 H          14.2304   35.1817   25.2042 H     449  UNL449      0.0241
   3593 CL         16.0301   33.9266   30.1058 Cl    450  UNL450     -0.1257
   3594 C          14.2752   33.8099   29.8537 C.3   450  UNL450      0.0198
   3595 C          13.9408   33.9380   28.3825 C.3   450  UNL450     -0.0517
   3596 H          13.9414   32.8448   30.2452 H     450  UNL450      0.0427
   3597 H          13.7976   34.6063   30.4312 H     450  UNL450      0.0427
   3598 H          12.8587   33.8653   28.2340 H     450  UNL450      0.0241
   3599 H          14.2714   34.9025   27.9832 H     450  UNL450      0.0241
   3600 H          14.4151   33.1433   27.7974 H     450  UNL450      0.0241
   3601 CL         17.4695   32.8429   32.1858 Cl    451  UNL451     -0.1257
   3602 C          15.7099   33.0889   32.1858 C.3   451  UNL451      0.0198
   3603 C          15.3807   34.5668   32.1858 C.3   451  UNL451     -0.0517
   3604 H          15.3008   32.5999   31.2972 H     451  UNL451      0.0427
   3605 H          15.3008   32.5999   33.0743 H     451  UNL451      0.0427
   3606 H          14.2956   34.7115   32.1858 H     451  UNL451      0.0241
   3607 H          15.7866   35.0635   33.0732 H     451  UNL451      0.0241
   3608 H          15.7866   35.0635   31.2984 H     451  UNL451      0.0241
   3609 CL         22.5090    2.1604    0.3690 Cl    452  UNL452     -0.1257
   3610 C          20.9665    1.2787    0.3690 C.3   452  UNL452      0.0198
   3611 C          19.8020    2.2465    0.3690 C.3   452  UNL452     -0.0517
   3612 H          20.9419    0.6416   -0.5196 H     452  UNL452      0.0427
   3613 H          20.9419    0.6416    1.2575 H     452  UNL452      0.0427
   3614 H          18.8551    1.6972    0.3690 H     452  UNL452      0.0241
   3615 H          19.8193    2.8877    1.2564 H     452  UNL452      0.0241
   3616 H          19.8193    2.8877   -0.5184 H     452  UNL452      0.0241
   3617 CL         22.5090    2.4729    3.6132 Cl    453  UNL453     -0.1257
   3618 C          20.9665    1.5912    3.6132 C.3   453  UNL453      0.0198
   3619 C          19.8020    2.5590    3.6132 C.3   453  UNL453     -0.0517
   3620 H          20.9419    0.9541    2.7246 H     453  UNL453      0.0427
   3621 H          20.9419    0.9541    4.5017 H     453  UNL453      0.0427
   3622 H          18.8551    2.0097    3.6132 H     453  UNL453      0.0241
   3623 H          19.8193    3.2002    4.5006 H     453  UNL453      0.0241
   3624 H          19.8193    3.2002    2.7258 H     453  UNL453      0.0241
   3625 CL         22.5090    2.4729    6.9824 Cl    454  UNL454     -0.1257
   3626 C          20.9665    1.5912    6.9824 C.3   454  UNL454      0.0198
   3627 C          19.8020    2.5590    6.9824 C.3   454  UNL454     -0.0517
   3628 H          20.9419    0.9541    6.0938 H     454  UNL454      0.0427
   3629 H          20.9419    0.9541    7.8709 H     454  UNL454      0.0427
   3630 H          18.8551    2.0097    6.9824 H     454  UNL454      0.0241
   3631 H          19.8193    3.2002    7.8698 H     454  UNL454      0.0241
   3632 H          19.8193    3.2002    6.0950 H     454  UNL454      0.0241
   3633 CL         19.7634    0.5864   10.9247 Cl    455  UNL455     -0.1257
   3634 C          19.9801    1.9815    9.8461 C.3   455  UNL455      0.0198
   3635 C          21.4524    2.2613    9.6297 C.3   455  UNL455     -0.0517
   3636 H          19.4844    1.7551    8.8978 H     455  UNL455      0.0427
   3637 H          19.4844    2.8422   10.3037 H     455  UNL455      0.0427
   3638 H          21.5790    3.1215    8.9646 H     455  UNL455      0.0241
   3639 H          21.9557    2.4896   10.5749 H     455  UNL455      0.0241
   3640 H          21.9557    1.4040    9.1708 H     455  UNL455      0.0241
   3641 CL         18.9509    0.5239   14.2314 Cl    456  UNL456     -0.1257
   3642 C          19.1676    1.9190   13.1527 C.3   456  UNL456      0.0198
   3643 C          20.6399    2.1988   12.9363 C.3   456  UNL456     -0.0517
   3644 H          18.6719    1.6926   12.2045 H     456  UNL456      0.0427
   3645 H          18.6719    2.7797   13.6104 H     456  UNL456      0.0427
   3646 H          20.7665    3.0590   12.2712 H     456  UNL456      0.0241
   3647 H          21.1432    2.4271   13.8816 H     456  UNL456      0.0241
   3648 H          21.1432    1.3415   12.4775 H     456  UNL456      0.0241
   3649 CL         22.5090    2.3479   16.2149 Cl    457  UNL457     -0.1257
   3650 C          20.9665    1.4662   16.2149 C.3   457  UNL457      0.0198
   3651 C          19.8020    2.4340   16.2149 C.3   457  UNL457     -0.0517
   3652 H          20.9419    0.8291   15.3263 H     457  UNL457      0.0427
   3653 H          20.9419    0.8291   17.1034 H     457  UNL457      0.0427
   3654 H          18.8551    1.8847   16.2149 H     457  UNL457      0.0241
   3655 H          19.8193    3.0752   17.1023 H     457  UNL457      0.0241
   3656 H          19.8193    3.0752   15.3275 H     457  UNL457      0.0241
   3657 CL         20.3153    3.8601   18.1984 Cl    458  UNL458     -0.1257
   3658 C          20.8057    2.5362   19.2771 C.3   458  UNL458      0.0198
   3659 C          19.6563    1.5745   19.4934 C.3   458  UNL458     -0.0517
   3660 H          21.6579    2.0259   18.8194 H     458  UNL458      0.0427
   3661 H          21.1283    2.9752   20.2252 H     458  UNL458      0.0427
   3662 H          19.9648    0.7616   20.1586 H     458  UNL458      0.0241
   3663 H          18.7990    2.0780   19.9523 H     458  UNL458      0.0241
   3664 H          19.3279    1.1299   18.5482 H     458  UNL458      0.0241
   3665 CL         22.2053    2.3479   23.9585 Cl    459  UNL459     -0.1257
   3666 C          20.9851    1.4662   23.0150 C.3   459  UNL459      0.0198
   3667 C          20.0638    2.4340   22.3027 C.3   459  UNL459     -0.0517
   3668 H          21.5091    0.8291   22.2970 H     459  UNL459      0.0427
   3669 H          20.4221    0.8291   23.7028 H     459  UNL459      0.0427
   3670 H          19.3147    1.8847   21.7235 H     459  UNL459      0.0241
   3671 H          19.5347    3.0752   23.0153 H     459  UNL459      0.0241
   3672 H          20.6203    3.0752   21.6112 H     459  UNL459      0.0241
   3673 CL         21.0466    0.8996   25.4703 Cl    460  UNL460     -0.1257
   3674 C          19.7550    1.7508   26.3443 C.3   460  UNL460      0.0198
   3675 C          18.9121    2.5645   25.3850 C.3   460  UNL460     -0.0517
   3676 H          19.1452    1.0024   26.8582 H     460  UNL460      0.0427
   3677 H          20.2226    2.3959   27.0934 H     460  UNL460      0.0427
   3678 H          18.1185    3.0862   25.9295 H     460  UNL460      0.0241
   3679 H          19.5157    3.3169   24.8669 H     460  UNL460      0.0241
   3680 H          18.4396    1.9252   24.6320 H     460  UNL460      0.0241
   3681 CL         22.2835    1.9043   30.4263 Cl    461  UNL461     -0.1257
   3682 C          21.4898    2.0499   28.8434 C.3   461  UNL461      0.0198
   3683 C          20.1003    1.4501   28.8892 C.3   461  UNL461     -0.0517
   3684 H          21.4462    3.1115   28.5840 H     461  UNL461      0.0427
   3685 H          22.1111    1.5344   28.1056 H     461  UNL461      0.0427
   3686 H          19.6170    1.5430   27.9113 H     461  UNL461      0.0241
   3687 H          20.1357    0.3867   29.1476 H     461  UNL461      0.0241
   3688 H          19.4717    1.9617   29.6254 H     461  UNL461      0.0241
   3689 CL         21.0608    3.2790   33.5467 Cl    462  UNL462     -0.1257
   3690 C          20.8894    1.6379   32.8876 C.3   462  UNL462      0.0198
   3691 C          20.5086    1.6912   31.4231 C.3   462  UNL462     -0.0517
   3692 H          21.8426    1.1189   33.0223 H     462  UNL462      0.0427
   3693 H          20.1227    1.1189   33.4696 H     462  UNL462      0.0427
   3694 H          20.4046    0.6775   31.0233 H     462  UNL462      0.0241
   3695 H          19.5545    2.2091   31.2801 H     462  UNL462      0.0241
   3696 H          21.2721    2.2091   30.8334 H     462  UNL462      0.0241
   3697 CL         19.2634    0.3989   34.3568 Cl    463  UNL463     -0.1257
   3698 C          19.4801    1.7939   35.4355 C.3   463  UNL463      0.0198
   3699 C          20.9524    2.0738   35.6518 C.3   463  UNL463     -0.0517
   3700 H          18.9844    2.6547   34.9778 H     463  UNL463      0.0427
   3701 H          18.9844    1.5677   36.3836 H     463  UNL463      0.0427
   3702 H          21.0790    2.9340   36.3170 H     463  UNL463      0.0241
   3703 H          21.4557    1.2165   36.1107 H     463  UNL463      0.0241
   3704 H          21.4557    2.3021   34.7066 H     463  UNL463      0.0241
   3705 CL         22.7590    5.3265    1.9570 Cl    464  UNL464     -0.1257
   3706 C          21.2165    5.1046    1.1036 C.3   464  UNL464      0.0198
   3707 C          20.0520    5.3481    2.0403 C.3   464  UNL464     -0.0517
   3708 H          21.1919    5.8042    0.2634 H     464  UNL464      0.0427
   3709 H          21.1919    4.0843    0.7107 H     464  UNL464      0.0427
   3710 H          19.1051    5.2099    1.5087 H     464  UNL464      0.0241
   3711 H          20.0693    4.6507    2.8842 H     464  UNL464      0.0241
   3712 H          20.0693    6.3684    2.4375 H     464  UNL464      0.0241
   3713 CL         22.5090    5.9673    4.7949 Cl    465  UNL465     -0.1257
   3714 C          20.9665    5.0856    4.7949 C.3   465  UNL465      0.0198
   3715 C          19.8020    6.0534    4.7949 C.3   465  UNL465     -0.0517
   3716 H          20.9419    4.4485    3.9063 H     465  UNL465      0.0427
   3717 H          20.9419    4.4485    5.6834 H     465  UNL465      0.0427
   3718 H          18.8551    5.5041    4.7949 H     465  UNL465      0.0241
   3719 H          19.8193    6.6946    5.6823 H     465  UNL465      0.0241
   3720 H          19.8193    6.6946    3.9075 H     465  UNL465      0.0241
   3721 CL         22.5090    6.0298    7.9765 Cl    466  UNL466     -0.1257
   3722 C          20.9665    5.1481    7.9765 C.3   466  UNL466      0.0198
   3723 C          19.8020    6.1159    7.9765 C.3   466  UNL466     -0.0517
   3724 H          20.9419    4.5110    7.0879 H     466  UNL466      0.0427
   3725 H          20.9419    4.5110    8.8650 H     466  UNL466      0.0427
   3726 H          18.8551    5.5666    7.9765 H     466  UNL466      0.0241
   3727 H          19.8193    6.7571    8.8639 H     466  UNL466      0.0241
   3728 H          19.8193    6.7571    7.0891 H     466  UNL466      0.0241
   3729 CL         22.7590    5.8306   10.9409 Cl    467  UNL467     -0.1257
   3730 C          21.2165    5.1331   11.4803 C.3   467  UNL467      0.0198
   3731 C          20.0520    5.8987   10.8883 C.3   467  UNL467     -0.0517
   3732 H          21.1919    4.0855   11.1670 H     467  UNL467      0.0427
   3733 H          21.1919    5.1725   12.5729 H     467  UNL467      0.0427
   3734 H          19.1051    5.4642   11.2243 H     467  UNL467      0.0241
   3735 H          20.0693    6.9488   11.1981 H     467  UNL467      0.0241
   3736 H          20.0693    5.8632    9.7940 H     467  UNL467      0.0241
   3737 CL         22.8840    5.4048   14.8399 Cl    468  UNL468     -0.1257
   3738 C          21.3415    4.5231   14.8399 C.3   468  UNL468      0.0198
   3739 C          20.1770    5.4909   14.8399 C.3   468  UNL468     -0.0517
   3740 H          21.3169    3.8860   13.9513 H     468  UNL468      0.0427
   3741 H          21.3169    3.8860   15.7284 H     468  UNL468      0.0427
   3742 H          19.2301    4.9416   14.8399 H     468  UNL468      0.0241
   3743 H          20.1943    6.1321   15.7273 H     468  UNL468      0.0241
   3744 H          20.1943    6.1321   13.9525 H     468  UNL468      0.0241
   3745 CL         22.8215    5.9048   17.7716 Cl    469  UNL469     -0.1257
   3746 C          21.2790    5.0231   17.7716 C.3   469  UNL469      0.0198
   3747 C          20.1145    5.9909   17.7716 C.3   469  UNL469     -0.0517
   3748 H          21.2544    4.3860   16.8830 H     469  UNL469      0.0427
   3749 H          21.2544    4.3860   18.6601 H     469  UNL469      0.0427
   3750 H          19.1676    5.4416   17.7716 H     469  UNL469      0.0241
   3751 H          20.1318    6.6321   18.6590 H     469  UNL469      0.0241
   3752 H          20.1318    6.6321   16.8842 H     469  UNL469      0.0241
   3753 CL         20.6965    5.1957   20.9846 Cl    470  UNL470     -0.1257
   3754 C          19.1540    6.0740   20.9067 C.3   470  UNL470      0.0198
   3755 C          17.9895    5.1100   20.9922 C.3   470  UNL470     -0.0517
   3756 H          19.1294    6.7871   21.7355 H     470  UNL470      0.0427
   3757 H          19.1294    6.6301   19.9654 H     470  UNL470      0.0427
   3758 H          17.0426    5.6571   20.9437 H     470  UNL470      0.0241
   3759 H          18.0068    4.3929   20.1650 H     470  UNL470      0.0241
   3760 H          18.0068    4.5497   21.9328 H     470  UNL470      0.0241
   3761 CL         22.7590    5.5298   23.3849 Cl    471  UNL471     -0.1257
   3762 C          21.2165    4.6481   23.3849 C.3   471  UNL471      0.0198
   3763 C          20.0520    5.6159   23.3849 C.3   471  UNL471     -0.0517
   3764 H          21.1919    4.0110   22.4963 H     471  UNL471      0.0427
   3765 H          21.1919    4.0110   24.2734 H     471  UNL471      0.0427
   3766 H          19.1051    5.0666   23.3849 H     471  UNL471      0.0241
   3767 H          20.0693    6.2571   24.2723 H     471  UNL471      0.0241
   3768 H          20.0693    6.2571   22.4975 H     471  UNL471      0.0241
   3769 CL         21.0466    4.3315   29.2312 Cl    472  UNL472     -0.1257
   3770 C          19.7549    5.1827   28.3573 C.3   472  UNL472      0.0198
   3771 C          18.9121    5.9963   29.3166 C.3   472  UNL472     -0.0517
   3772 H          20.2227    5.8279   27.6082 H     472  UNL472      0.0427
   3773 H          19.1452    4.4343   27.8434 H     472  UNL472      0.0427
   3774 H          18.1185    6.5180   28.7721 H     472  UNL472      0.0241
   3775 H          18.4396    5.3570   30.0695 H     472  UNL472      0.0241
   3776 H          19.5157    6.7487   29.8347 H     472  UNL472      0.0241
   3777 CL         19.5134    3.9558   33.3840 Cl    473  UNL473     -0.1257
   3778 C          19.7301    5.3508   32.3053 C.3   473  UNL473      0.0198
   3779 C          21.2024    5.6307   32.0889 C.3   473  UNL473     -0.0517
   3780 H          19.2344    5.1245   31.3571 H     473  UNL473      0.0427
   3781 H          19.2344    6.2115   32.7629 H     473  UNL473      0.0427
   3782 H          21.3290    6.4909   31.4238 H     473  UNL473      0.0241
   3783 H          21.7057    5.8590   33.0342 H     473  UNL473      0.0241
   3784 H          21.7057    4.7733   31.6301 H     473  UNL473      0.0241
   3785 CL         22.2381    6.8358   35.6175 Cl    474  UNL474     -0.1257
   3786 C          21.5571    5.1948   35.6175 C.3   474  UNL474      0.0198
   3787 C          20.0439    5.2481   35.6175 C.3   474  UNL474     -0.0517
   3788 H          21.9273    4.6757   34.7289 H     474  UNL474      0.0427
   3789 H          21.9273    4.6757   36.5060 H     474  UNL474      0.0427
   3790 H          19.6308    4.2344   35.6175 H     474  UNL474      0.0241
   3791 H          19.6654    5.7660   36.5049 H     474  UNL474      0.0241
   3792 H          19.6654    5.7660   34.7301 H     474  UNL474      0.0241
   3793 CL         22.4310    9.6871    0.0477 Cl    475  UNL475     -0.1257
   3794 C          21.0254    8.8738    0.7684 C.3   475  UNL475      0.0198
   3795 C          19.7563    9.2613    0.0391 C.3   475  UNL475     -0.0517
   3796 H          21.1930    7.7946    0.7096 H     475  UNL475      0.0427
   3797 H          20.9716    9.1629    1.8218 H     475  UNL475      0.0427
   3798 H          18.8945    8.7570    0.4878 H     475  UNL475      0.0241
   3799 H          19.5811   10.3407    0.0942 H     475  UNL475      0.0241
   3800 H          19.8023    8.9742   -1.0166 H     475  UNL475      0.0241
   3801 CL         22.6965    9.3992    3.6132 Cl    476  UNL476     -0.1257
   3802 C          21.1540    8.5175    3.6132 C.3   476  UNL476      0.0198
   3803 C          19.9895    9.4853    3.6132 C.3   476  UNL476     -0.0517
   3804 H          21.1294    7.8804    2.7246 H     476  UNL476      0.0427
   3805 H          21.1294    7.8804    4.5017 H     476  UNL476      0.0427
   3806 H          19.0426    8.9360    3.6132 H     476  UNL476      0.0241
   3807 H          20.0068   10.1265    4.5006 H     476  UNL476      0.0241
   3808 H          20.0068   10.1265    2.7258 H     476  UNL476      0.0241
   3809 CL         20.6965    8.8314    7.0794 Cl    477  UNL477     -0.1257
   3810 C          19.1540    9.3590    6.3731 C.3   477  UNL477      0.0198
   3811 C          17.9895    8.7798    7.1484 C.3   477  UNL477     -0.0517
   3812 H          19.1294   10.4522    6.3944 H     477  UNL477      0.0427
   3813 H          19.1294    9.0285    5.3309 H     477  UNL477      0.0427
   3814 H          17.0426    9.1086    6.7083 H     477  UNL477      0.0241
   3815 H          18.0068    7.6851    7.1310 H     477  UNL477      0.0241
   3816 H          18.0068    9.1070    8.1932 H     477  UNL477      0.0241
   3817 CL         22.6965    9.3992    9.9765 Cl    478  UNL478     -0.1257
   3818 C          21.1540    8.5175    9.9765 C.3   478  UNL478      0.0198
   3819 C          19.9895    9.4853    9.9765 C.3   478  UNL478     -0.0517
   3820 H          21.1294    7.8804    9.0879 H     478  UNL478      0.0427
   3821 H          21.1294    7.8804   10.8650 H     478  UNL478      0.0427
   3822 H          19.0426    8.9360    9.9765 H     478  UNL478      0.0241
   3823 H          20.0068   10.1265   10.8639 H     478  UNL478      0.0241
   3824 H          20.0068   10.1265    9.0891 H     478  UNL478      0.0241
   3825 CL         19.4509    7.5751   14.1064 Cl    479  UNL479     -0.1257
   3826 C          19.6676    8.9702   13.0277 C.3   479  UNL479      0.0198
   3827 C          21.1399    9.2501   12.8113 C.3   479  UNL479     -0.0517
   3828 H          19.1719    8.7439   12.0795 H     479  UNL479      0.0427
   3829 H          19.1719    9.8309   13.4854 H     479  UNL479      0.0427
   3830 H          21.2665   10.1103   12.1462 H     479  UNL479      0.0241
   3831 H          21.6432    9.4783   13.7566 H     479  UNL479      0.0241
   3832 H          21.6432    8.3927   12.3525 H     479  UNL479      0.0241
   3833 CL         20.6919    9.0189   15.4973 Cl    480  UNL480     -0.1257
   3834 C          19.0396    9.5465   15.8820 C.3   480  UNL480      0.0198
   3835 C          18.5926    8.9673   17.2077 C.3   480  UNL480     -0.0517
   3836 H          19.0332   10.6397   15.9139 H     480  UNL480      0.0427
   3837 H          18.3826    9.2160   15.0726 H     480  UNL480      0.0427
   3838 H          17.5743    9.2961   17.4387 H     480  UNL480      0.0241
   3839 H          18.5957    7.8726   17.1833 H     480  UNL480      0.0241
   3840 H          19.2454    9.2945   18.0236 H     480  UNL480      0.0241
   3841 CL         18.7898    9.9990   19.9077 Cl    481  UNL481     -0.1257
   3842 C          20.1368    8.8418   19.8525 C.3   481  UNL481      0.0198
   3843 C          21.1538    9.2604   18.8117 C.3   481  UNL481     -0.0517
   3844 H          20.5912    8.8051   20.8466 H     481  UNL481      0.0427
   3845 H          19.7255    7.8558   19.6189 H     481  UNL481      0.0427
   3846 H          21.9807    8.5437   18.7828 H     481  UNL481      0.0241
   3847 H          20.7064    9.2988   17.8131 H     481  UNL481      0.0241
   3848 H          21.5710   10.2469   19.0393 H     481  UNL481      0.0241
   3849 CL         22.2465    9.8045   23.6514 Cl    482  UNL482     -0.1257
   3850 C          21.3775    8.6918   22.5728 C.3   482  UNL482      0.0198
   3851 C          19.9555    9.1646   22.3564 C.3   482  UNL482     -0.0517
   3852 H          21.9207    8.6479   21.6245 H     482  UNL482      0.0427
   3853 H          21.3911    7.6986   23.0304 H     482  UNL482      0.0427
   3854 H          19.4258    8.4751   21.6913 H     482  UNL482      0.0241
   3855 H          19.4047    9.2105   23.3016 H     482  UNL482      0.0241
   3856 H          19.9336   10.1586   21.8976 H     482  UNL482      0.0241
   3857 CL         19.6468    7.3747   24.6297 Cl    483  UNL483     -0.1257
   3858 C          18.4864    8.3337   25.5732 C.3   483  UNL483      0.0198
   3859 C          19.1911    9.4689   26.2855 C.3   483  UNL483     -0.0517
   3860 H          17.7281    8.7183   24.8853 H     483  UNL483      0.0427
   3861 H          18.0017    7.6662   26.2912 H     483  UNL483      0.0427
   3862 H          18.4710   10.0556   26.8647 H     483  UNL483      0.0241
   3863 H          19.9518    9.0917   26.9770 H     483  UNL483      0.0241
   3864 H          19.6785   10.1424   25.5729 H     483  UNL483      0.0241
   3865 CL         22.0804    9.2742   27.7489 Cl    484  UNL484     -0.1257
   3866 C          20.8601    8.3925   28.6924 C.3   484  UNL484      0.0198
   3867 C          19.9388    9.3603   29.4047 C.3   484  UNL484     -0.0517
   3868 H          20.2971    7.7554   28.0045 H     484  UNL484      0.0427
   3869 H          21.3841    7.7554   29.4103 H     484  UNL484      0.0427
   3870 H          19.1897    8.8110   29.9839 H     484  UNL484      0.0241
   3871 H          20.4953   10.0015   30.0961 H     484  UNL484      0.0241
   3872 H          19.4097   10.0015   28.6921 H     484  UNL484      0.0241
   3873 CL         22.5090    9.5867   32.4358 Cl    485  UNL485     -0.1257
   3874 C          20.9665    8.7050   32.4358 C.3   485  UNL485      0.0198
   3875 C          19.8020    9.6728   32.4358 C.3   485  UNL485     -0.0517
   3876 H          20.9419    8.0679   31.5472 H     485  UNL485      0.0427
   3877 H          20.9419    8.0679   33.3243 H     485  UNL485      0.0427
   3878 H          18.8551    9.1235   32.4358 H     485  UNL485      0.0241
   3879 H          19.8193   10.3140   33.3232 H     485  UNL485      0.0241
   3880 H          19.8193   10.3140   31.5484 H     485  UNL485      0.0241
   3881 CL         19.7634    7.7001   36.5032 Cl    486  UNL486     -0.1257
   3882 C          19.9801    9.0952   35.4245 C.3   486  UNL486      0.0198
   3883 C          21.4524    9.3751   35.2081 C.3   486  UNL486     -0.0517
   3884 H          19.4844    8.8689   34.4762 H     486  UNL486      0.0427
   3885 H          19.4844    9.9559   35.8821 H     486  UNL486      0.0427
   3886 H          21.5790   10.2353   34.5430 H     486  UNL486      0.0241
   3887 H          21.9557    9.6033   36.1533 H     486  UNL486      0.0241
   3888 H          21.9557    8.5177   34.7493 H     486  UNL486      0.0241
   3889 CL         22.5090   12.8311    1.6132 Cl    487  UNL487     -0.1257
   3890 C          20.9665   11.9494    1.6132 C.3   487  UNL487      0.0198
   3891 C          19.8020   12.9172    1.6132 C.3   487  UNL487     -0.0517
   3892 H          20.9419   11.3123    0.7246 H     487  UNL487      0.0427
   3893 H          20.9419   11.3123    2.5017 H     487  UNL487      0.0427
   3894 H          18.8551   12.3679    1.6132 H     487  UNL487      0.0241
   3895 H          19.8193   13.5584    2.5006 H     487  UNL487      0.0241
   3896 H          19.8193   13.5584    0.7258 H     487  UNL487      0.0241
   3897 CL         22.8215   12.9561    4.7949 Cl    488  UNL488     -0.1257
   3898 C          21.2790   12.0744    4.7949 C.3   488  UNL488      0.0198
   3899 C          20.1145   13.0422    4.7949 C.3   488  UNL488     -0.0517
   3900 H          21.2544   11.4373    3.9063 H     488  UNL488      0.0427
   3901 H          21.2544   11.4373    5.6834 H     488  UNL488      0.0427
   3902 H          19.1676   12.4929    4.7949 H     488  UNL488      0.0241
   3903 H          20.1318   13.6834    5.6823 H     488  UNL488      0.0241
   3904 H          20.1318   13.6834    3.9075 H     488  UNL488      0.0241
   3905 CL         22.0506   14.1371    7.9765 Cl    489  UNL489     -0.1257
   3906 C          21.3696   12.4961    7.9765 C.3   489  UNL489      0.0198
   3907 C          19.8564   12.5494    7.9765 C.3   489  UNL489     -0.0517
   3908 H          21.7398   11.9770    7.0879 H     489  UNL489      0.0427
   3909 H          21.7398   11.9770    8.8650 H     489  UNL489      0.0427
   3910 H          19.4433   11.5356    7.9765 H     489  UNL489      0.0241
   3911 H          19.4779   13.0672    8.8639 H     489  UNL489      0.0241
   3912 H          19.4779   13.0672    7.0891 H     489  UNL489      0.0241
   3913 CL         22.5476   11.7516   10.9082 Cl    490  UNL490     -0.1257
   3914 C          20.7880   11.9976   10.9082 C.3   490  UNL490      0.0198
   3915 C          20.4588   13.4755   10.9082 C.3   490  UNL490     -0.0517
   3916 H          20.3789   11.5086   10.0196 H     490  UNL490      0.0427
   3917 H          20.3789   11.5086   11.7967 H     490  UNL490      0.0427
   3918 H          19.3737   13.6202   10.9082 H     490  UNL490      0.0241
   3919 H          20.8647   13.9722   11.7956 H     490  UNL490      0.0241
   3920 H          20.8647   13.9722   10.0208 H     490  UNL490      0.0241
   3921 CL         22.4085   13.6409   14.5572 Cl    491  UNL491     -0.1257
   3922 C          21.6148   12.1456   14.0179 C.3   491  UNL491      0.0198
   3923 C          20.2253   12.0390   14.6098 C.3   491  UNL491     -0.0517
   3924 H          21.5712   12.1618   12.9252 H     491  UNL491      0.0427
   3925 H          22.2361   11.3018   14.3311 H     491  UNL491      0.0427
   3926 H          19.7420   11.1160   14.2739 H     491  UNL491      0.0241
   3927 H          20.2607   12.0214   15.7041 H     491  UNL491      0.0241
   3928 H          19.5967   12.8802   14.3000 H     491  UNL491      0.0241
   3929 CL         22.2381   14.3246   17.0216 Cl    492  UNL492     -0.1257
   3930 C          21.5571   12.6836   17.0216 C.3   492  UNL492      0.0198
   3931 C          20.0439   12.7369   17.0216 C.3   492  UNL492     -0.0517
   3932 H          21.9273   12.1645   16.1330 H     492  UNL492      0.0427
   3933 H          21.9273   12.1645   17.9101 H     492  UNL492      0.0427
   3934 H          19.6308   11.7231   17.0216 H     492  UNL492      0.0241
   3935 H          19.6654   13.2547   17.9090 H     492  UNL492      0.0241
   3936 H          19.6654   13.2547   16.1342 H     492  UNL492      0.0241
   3937 CL         22.4553   13.9676   20.9254 Cl    493  UNL493     -0.1257
   3938 C          21.2351   12.8325   21.5412 C.3   493  UNL493      0.0198
   3939 C          20.3138   12.3867   20.4253 C.3   493  UNL493     -0.0517
   3940 H          21.7591   11.9773   21.9771 H     493  UNL493      0.0427
   3941 H          20.6721   13.3379   22.3310 H     493  UNL493      0.0427
   3942 H          19.5647   11.6879   20.8111 H     493  UNL493      0.0241
   3943 H          19.7847   13.2378   19.9841 H     493  UNL493      0.0241
   3944 H          20.8703   11.8789   19.6307 H     493  UNL493      0.0241
   3945 CL         22.4553   11.4129   25.0447 Cl    494  UNL494     -0.1257
   3946 C          21.2351   12.1041   23.9539 C.3   494  UNL494      0.0198
   3947 C          20.3138   13.0371   24.7112 C.3   494  UNL494     -0.0517
   3948 H          21.7591   12.6387   23.1566 H     494  UNL494      0.0427
   3949 H          20.6721   11.2781   23.5104 H     494  UNL494      0.0427
   3950 H          19.5647   13.4594   24.0338 H     494  UNL494      0.0241
   3951 H          19.7847   12.5088   25.5111 H     494  UNL494      0.0241
   3952 H          20.8703   13.8676   25.1578 H     494  UNL494      0.0241
   3953 CL         20.6897   11.3804   28.0339 Cl    495  UNL495     -0.1257
   3954 C          19.0428   11.7721   27.4946 C.3   495  UNL495      0.0198
   3955 C          18.5899   13.0901   28.0866 C.3   495  UNL495     -0.0517
   3956 H          19.0475   11.8184   26.4019 H     495  UNL495      0.0427
   3957 H          18.3826   10.9585   27.8078 H     495  UNL495      0.0427
   3958 H          17.5750   13.3255   27.7506 H     495  UNL495      0.0241
   3959 H          18.5818   13.0514   29.1808 H     495  UNL495      0.0241
   3960 H          19.2459   13.9102   27.7768 H     495  UNL495      0.0241
   3961 CL         22.8840   12.6436   30.2483 Cl    496  UNL496     -0.1257
   3962 C          21.3415   11.7619   30.2483 C.3   496  UNL496      0.0198
   3963 C          20.1770   12.7297   30.2483 C.3   496  UNL496     -0.0517
   3964 H          21.3169   11.1248   29.3597 H     496  UNL496      0.0427
   3965 H          21.3169   11.1248   31.1368 H     496  UNL496      0.0427
   3966 H          19.2301   12.1804   30.2483 H     496  UNL496      0.0241
   3967 H          20.1943   13.3709   31.1357 H     496  UNL496      0.0241
   3968 H          20.1943   13.3709   29.3609 H     496  UNL496      0.0241
   3969 CL         22.5090   13.1436   33.4300 Cl    497  UNL497     -0.1257
   3970 C          20.9665   12.2619   33.4300 C.3   497  UNL497      0.0198
   3971 C          19.8020   13.2297   33.4300 C.3   497  UNL497     -0.0517
   3972 H          20.9419   11.6248   32.5414 H     497  UNL497      0.0427
   3973 H          20.9419   11.6248   34.3185 H     497  UNL497      0.0427
   3974 H          18.8551   12.6804   33.4300 H     497  UNL497      0.0241
   3975 H          19.8193   13.8709   34.3174 H     497  UNL497      0.0241
   3976 H          19.8193   13.8709   32.5426 H     497  UNL497      0.0241
   3977 CL         21.2162   15.3465    0.3490 Cl    498  UNL498     -0.1257
   3978 C          19.5036   15.6532    0.7088 C.3   498  UNL498      0.0198
   3979 C          19.1228   17.0645    0.3139 C.3   498  UNL498     -0.0517
   3980 H          18.9065   14.9213    0.1576 H     498  UNL498      0.0427
   3981 H          19.3501   15.4950    1.7800 H     498  UNL498      0.0427
   3982 H          18.0669   17.2470    0.5381 H     498  UNL498      0.0241
   3983 H          19.7160   17.8035    0.8624 H     498  UNL498      0.0241
   3984 H          19.2730   17.2305   -0.7579 H     498  UNL498      0.0241
   3985 CL         22.5715   16.3879    3.6132 Cl    499  UNL499     -0.1257
   3986 C          21.0290   15.5062    3.6132 C.3   499  UNL499      0.0198
   3987 C          19.8645   16.4740    3.6132 C.3   499  UNL499     -0.0517
   3988 H          21.0044   14.8691    2.7246 H     499  UNL499      0.0427
   3989 H          21.0044   14.8691    4.5017 H     499  UNL499      0.0427
   3990 H          18.9176   15.9247    3.6132 H     499  UNL499      0.0241
   3991 H          19.8818   17.1152    4.5006 H     499  UNL499      0.0241
   3992 H          19.8818   17.1152    2.7258 H     499  UNL499      0.0241
   3993 CL         21.4465   16.0701    6.3228 Cl    500  UNL500     -0.1257
   3994 C          19.9040   16.5978    7.0291 C.3   500  UNL500      0.0198
   3995 C          18.7395   16.0186    6.2538 C.3   500  UNL500     -0.0517
   3996 H          19.8794   16.2672    8.0713 H     500  UNL500      0.0427
   3997 H          19.8794   17.6909    7.0078 H     500  UNL500      0.0427
   3998 H          17.7926   16.3473    6.6938 H     500  UNL500      0.0241
   3999 H          18.7568   16.3458    5.2090 H     500  UNL500      0.0241
   4000 H          18.7568   14.9239    6.2711 H     500  UNL500      0.0241
   4001 CL         20.1166   17.9028    9.7544 Cl    501  UNL501     -0.1257
   4002 C          19.2177   16.5427   10.4608 C.3   501  UNL501      0.0198
   4003 C          19.4852   15.2699    9.6855 C.3   501  UNL501     -0.0517
   4004 H          19.5315   16.4357   11.5030 H     501  UNL501      0.0427
   4005 H          18.1536   16.7940   10.4395 H     501  UNL501      0.0427
   4006 H          18.9287   14.4363   10.1255 H     501  UNL501      0.0241
   4007 H          19.1729   15.3690    8.6407 H     501  UNL501      0.0241
   4008 H          20.5490   15.0112    9.7028 H     501  UNL501      0.0241
   4009 CL         18.7009   14.5639   14.2314 Cl    502  UNL502     -0.1257
   4010 C          18.9176   15.9590   13.1527 C.3   502  UNL502      0.0198
   4011 C          20.3899   16.2388   12.9363 C.3   502  UNL502     -0.0517
   4012 H          18.4219   15.7327   12.2045 H     502  UNL502      0.0427
   4013 H          18.4219   16.8197   13.6104 H     502  UNL502      0.0427
   4014 H          20.5165   17.0990   12.2712 H     502  UNL502      0.0241
   4015 H          20.8932   16.4671   13.8816 H     502  UNL502      0.0241
   4016 H          20.8932   15.3815   12.4775 H     502  UNL502      0.0241
   4017 CL         19.6411   14.4270   15.4973 Cl    503  UNL503     -0.1257
   4018 C          19.7359   16.1590   15.8820 C.3   503  UNL503      0.0198
   4019 C          19.0628   16.4458   17.2077 C.3   503  UNL503     -0.0517
   4020 H          20.7922   16.4403   15.9139 H     503  UNL503      0.0427
   4021 H          19.2506   16.7116   15.0726 H     503  UNL503      0.0427
   4022 H          19.1247   17.5141   17.4387 H     503  UNL503      0.0241
   4023 H          18.0042   16.1673   17.1833 H     503  UNL503      0.0241
   4024 H          19.5438   15.8964   18.0236 H     503  UNL503      0.0241
   4025 CL         22.8215   16.5754   19.5841 Cl    504  UNL504     -0.1257
   4026 C          21.2790   15.6937   19.5841 C.3   504  UNL504      0.0198
   4027 C          20.1145   16.6615   19.5841 C.3   504  UNL504     -0.0517
   4028 H          21.2544   15.0566   18.6955 H     504  UNL504      0.0427
   4029 H          21.2544   15.0566   20.4726 H     504  UNL504      0.0427
   4030 H          19.1676   16.1122   19.5841 H     504  UNL504      0.0241
   4031 H          20.1318   17.3027   20.4715 H     504  UNL504      0.0241
   4032 H          20.1318   17.3027   18.6967 H     504  UNL504      0.0241
   4033 CL         19.2658   14.7514   23.0871 Cl    505  UNL505     -0.1257
   4034 C          20.0971   16.1465   22.3663 C.3   505  UNL505      0.0198
   4035 C          21.3941   16.4263   23.0957 C.3   505  UNL505     -0.0517
   4036 H          20.2850   15.9202   21.3129 H     505  UNL505      0.0427
   4037 H          19.4250   17.0072   22.4251 H     505  UNL505      0.0427
   4038 H          21.9011   17.2865   22.6470 H     505  UNL505      0.0241
   4039 H          21.2142   16.6546   24.1513 H     505  UNL505      0.0241
   4040 H          22.0730   15.5690   23.0406 H     505  UNL505      0.0241
   4041 CL         21.4465   15.8826   25.9820 Cl    506  UNL506     -0.1257
   4042 C          19.9040   16.4103   25.2756 C.3   506  UNL506      0.0198
   4043 C          18.7395   15.8311   26.0510 C.3   506  UNL506     -0.0517
   4044 H          19.8794   17.5035   25.2970 H     506  UNL506      0.0427
   4045 H          19.8794   16.0797   24.2335 H     506  UNL506      0.0427
   4046 H          17.7926   16.1598   25.6109 H     506  UNL506      0.0241
   4047 H          18.7568   14.7364   26.0336 H     506  UNL506      0.0241
   4048 H          18.7568   16.1583   27.0958 H     506  UNL506      0.0241
   4049 CL         19.0158   14.8764   29.4504 Cl    507  UNL507     -0.1257
   4050 C          19.8471   16.2715   28.7297 C.3   507  UNL507      0.0198
   4051 C          21.1441   16.5513   29.4590 C.3   507  UNL507     -0.0517
   4052 H          20.0350   16.0452   27.6763 H     507  UNL507      0.0427
   4053 H          19.1750   17.1322   28.7885 H     507  UNL507      0.0427
   4054 H          21.6511   17.4115   29.0103 H     507  UNL507      0.0241
   4055 H          20.9642   16.7796   30.5147 H     507  UNL507      0.0241
   4056 H          21.8230   15.6940   29.4039 H     507  UNL507      0.0241
   4057 CL         21.4465   15.8826   32.5954 Cl    508  UNL508     -0.1257
   4058 C          19.9040   16.4103   31.8890 C.3   508  UNL508      0.0198
   4059 C          18.7395   15.8311   32.6644 C.3   508  UNL508     -0.0517
   4060 H          19.8794   17.5035   31.9104 H     508  UNL508      0.0427
   4061 H          19.8794   16.0797   30.8469 H     508  UNL508      0.0427
   4062 H          17.7926   16.1598   32.2243 H     508  UNL508      0.0241
   4063 H          18.7568   14.7364   32.6470 H     508  UNL508      0.0241
   4064 H          18.7568   16.1583   33.7091 H     508  UNL508      0.0241
   4065 CL         22.2381   17.7565   35.5550 Cl    509  UNL509     -0.1257
   4066 C          21.5571   16.1154   35.5550 C.3   509  UNL509      0.0198
   4067 C          20.0439   16.1688   35.5550 C.3   509  UNL509     -0.0517
   4068 H          21.9273   15.5964   34.6664 H     509  UNL509      0.0427
   4069 H          21.9273   15.5964   36.4435 H     509  UNL509      0.0427
   4070 H          19.6308   15.1550   35.5550 H     509  UNL509      0.0241
   4071 H          19.6654   16.6866   36.4424 H     509  UNL509      0.0241
   4072 H          19.6654   16.6866   34.6676 H     509  UNL509      0.0241
   4073 CL         22.4553   20.1323    2.8684 Cl    510  UNL510     -0.1257
   4074 C          21.2351   19.2506    1.9249 C.3   510  UNL510      0.0198
   4075 C          20.3138   20.2184    1.2126 C.3   510  UNL510     -0.0517
   4076 H          21.7591   18.6135    1.2069 H     510  UNL510      0.0427
   4077 H          20.6721   18.6135    2.6128 H     510  UNL510      0.0427
   4078 H          19.5647   19.6691    0.6334 H     510  UNL510      0.0241
   4079 H          19.7847   20.8596    1.9252 H     510  UNL510      0.0241
   4080 H          20.8703   20.8596    0.5212 H     510  UNL510      0.0241
   4081 CL         21.6489   20.9886    6.0501 Cl    511  UNL511     -0.1257
   4082 C          21.2229   19.5447    5.1066 C.3   511  UNL511      0.0198
   4083 C          19.9021   19.7468    4.3943 C.3   511  UNL511     -0.0517
   4084 H          22.0272   19.3613    4.3886 H     511  UNL511      0.0427
   4085 H          21.1672   18.6963    5.7944 H     511  UNL511      0.0427
   4086 H          19.6455   18.8541    3.8151 H     511  UNL511      0.0241
   4087 H          19.0913   19.9304    5.1069 H     511  UNL511      0.0241
   4088 H          19.9501   20.5945    3.7028 H     511  UNL511      0.0241
   4089 CL         22.8840   19.8081    8.0093 Cl    512  UNL512     -0.1257
   4090 C          21.3415   19.1106    8.5486 C.3   512  UNL512      0.0198
   4091 C          20.1770   19.8762    7.9566 C.3   512  UNL512     -0.0517
   4092 H          21.3169   18.0630    8.2353 H     512  UNL512      0.0427
   4093 H          21.3169   19.1501    9.6412 H     512  UNL512      0.0427
   4094 H          19.2301   19.4417    8.2926 H     512  UNL512      0.0241
   4095 H          20.1943   20.9263    8.2664 H     512  UNL512      0.0241
   4096 H          20.1943   19.8407    6.8623 H     512  UNL512      0.0241
   4097 CL         21.8392   21.1937   12.1466 Cl    513  UNL513     -0.1257
   4098 C          21.5614   19.5917   11.4303 C.3   513  UNL513      0.0198
   4099 C          20.0779   19.3104   11.3182 C.3   513  UNL513     -0.0517
   4100 H          22.0352   19.5759   10.4447 H     513  UNL513      0.0427
   4101 H          22.0506   18.8483   12.0660 H     513  UNL513      0.0427
   4102 H          19.9136   18.3224   10.8763 H     513  UNL513      0.0241
   4103 H          19.5963   19.3238   12.3014 H     513  UNL513      0.0241
   4104 H          19.5809   20.0504   10.6823 H     513  UNL513      0.0241
   4105 CL         22.7522   18.2442   14.8072 Cl    514  UNL514     -0.1257
   4106 C          21.1053   18.6359   14.2679 C.3   514  UNL514      0.0198
   4107 C          20.6524   19.9539   14.8598 C.3   514  UNL514     -0.0517
   4108 H          21.1100   18.6822   13.1752 H     514  UNL514      0.0427
   4109 H          20.4451   17.8222   14.5811 H     514  UNL514      0.0427
   4110 H          19.6375   20.1893   14.5239 H     514  UNL514      0.0241
   4111 H          20.6443   19.9152   15.9541 H     514  UNL514      0.0241
   4112 H          21.3084   20.7740   14.5500 H     514  UNL514      0.0241
   4113 CL         22.6340   20.1323   17.5216 Cl    515  UNL515     -0.1257
   4114 C          21.0915   19.2506   17.5216 C.3   515  UNL515      0.0198
   4115 C          19.9270   20.2184   17.5216 C.3   515  UNL515     -0.0517
   4116 H          21.0669   18.6135   16.6330 H     515  UNL515      0.0427
   4117 H          21.0669   18.6135   18.4101 H     515  UNL515      0.0427
   4118 H          18.9801   19.6691   17.5216 H     515  UNL515      0.0241
   4119 H          19.9443   20.8596   18.4090 H     515  UNL515      0.0241
   4120 H          19.9443   20.8596   16.6342 H     515  UNL515      0.0241
   4121 CL         21.2234   19.9448   18.7172 Cl    516  UNL516     -0.1257
   4122 C          20.8352   19.0631   20.2100 C.3   516  UNL516      0.0198
   4123 C          20.5421   20.0309   21.3370 C.3   516  UNL516     -0.0517
   4124 H          19.9690   18.4260   20.0102 H     516  UNL516      0.0427
   4125 H          21.6889   18.4260   20.4575 H     516  UNL516      0.0427
   4126 H          20.3038   19.4816   22.2535 H     516  UNL516      0.0241
   4127 H          21.4053   20.6721   21.5437 H     516  UNL516      0.0241
   4128 H          19.6876   20.6721   21.0970 H     516  UNL516      0.0241
   4129 CL         22.3304   20.1323   22.6297 Cl    517  UNL517     -0.1257
   4130 C          21.1101   19.2506   23.5732 C.3   517  UNL517      0.0198
   4131 C          20.1888   20.2184   24.2855 C.3   517  UNL517     -0.0517
   4132 H          20.5471   18.6135   22.8853 H     517  UNL517      0.0427
   4133 H          21.6341   18.6135   24.2912 H     517  UNL517      0.0427
   4134 H          19.4397   19.6691   24.8647 H     517  UNL517      0.0241
   4135 H          20.7453   20.8596   24.9770 H     517  UNL517      0.0241
   4136 H          19.6597   20.8596   23.5729 H     517  UNL517      0.0241
   4137 CL         22.1585   21.1296   27.5339 Cl    518  UNL518     -0.1257
   4138 C          21.3648   19.6343   26.9946 C.3   518  UNL518      0.0198
   4139 C          19.9753   19.5277   27.5866 C.3   518  UNL518     -0.0517
   4140 H          21.3212   19.6505   25.9019 H     518  UNL518      0.0427
   4141 H          21.9861   18.7906   27.3078 H     518  UNL518      0.0427
   4142 H          19.4920   18.6047   27.2506 H     518  UNL518      0.0241
   4143 H          20.0107   19.5102   28.6808 H     518  UNL518      0.0241
   4144 H          19.3467   20.3690   27.2768 H     518  UNL518      0.0241
   4145 CL         22.4474   19.6831   32.9254 Cl    519  UNL519     -0.1257
   4146 C          21.5571   18.9856   31.5553 C.3   519  UNL519      0.0198
   4147 C          20.2737   19.7512   31.3113 C.3   519  UNL519     -0.0517
   4148 H          22.2060   19.0251   30.6758 H     519  UNL519      0.0427
   4149 H          21.3460   17.9381   31.7880 H     519  UNL519      0.0427
   4150 H          19.7301   19.3167   30.4663 H     519  UNL519      0.0241
   4151 H          19.6181   19.7157   32.1875 H     519  UNL519      0.0241
   4152 H          20.4769   20.8013   31.0768 H     519  UNL519      0.0241
   4153 CL         19.9796   23.4336    1.4237 Cl    520  UNL520     -0.1257
   4154 C          18.8543   22.5657    0.3574 C.3   520  UNL520      0.0198
   4155 C          17.8288   23.5184   -0.2201 C.3   520  UNL520     -0.0517
   4156 H          19.4385   22.0950   -0.4384 H     520  UNL520      0.0427
   4157 H          18.3684   21.7821    0.9455 H     520  UNL520      0.0427
   4158 H          17.1389   22.9777   -0.8758 H     520  UNL520      0.0241
   4159 H          17.2391   23.9934    0.5708 H     520  UNL520      0.0241
   4160 H          18.3078   24.3058   -0.8113 H     520  UNL520      0.0241
   4161 CL         22.5090   23.6267    3.8007 Cl    521  UNL521     -0.1257
   4162 C          20.9665   22.7450    3.8007 C.3   521  UNL521      0.0198
   4163 C          19.8020   23.7128    3.8007 C.3   521  UNL521     -0.0517
   4164 H          20.9419   22.1079    2.9121 H     521  UNL521      0.0427
   4165 H          20.9419   22.1079    4.6892 H     521  UNL521      0.0427
   4166 H          18.8551   23.1635    3.8007 H     521  UNL521      0.0241
   4167 H          19.8193   24.3540    4.6881 H     521  UNL521      0.0241
   4168 H          19.8193   24.3540    2.9133 H     521  UNL521      0.0241
   4169 CL         20.9465   23.3711    6.9823 Cl    522  UNL522     -0.1257
   4170 C          19.4040   22.5032    7.1375 C.3   522  UNL522      0.0198
   4171 C          18.2395   23.4559    6.9672 C.3   522  UNL522     -0.0517
   4172 H          19.3794   21.7196    6.3750 H     522  UNL522      0.0427
   4173 H          19.3794   22.0325    8.1243 H     522  UNL522      0.0427
   4174 H          17.2926   22.9152    7.0639 H     522  UNL522      0.0241
   4175 H          18.2568   24.2433    7.7278 H     522  UNL522      0.0241
   4176 H          18.2568   23.9309    5.9807 H     522  UNL522      0.0241
   4177 CL         19.5134   21.6152   11.1747 Cl    523  UNL523     -0.1257
   4178 C          19.7301   23.0102   10.0961 C.3   523  UNL523      0.0198
   4179 C          21.2024   23.2901    9.8797 C.3   523  UNL523     -0.0517
   4180 H          19.2344   22.7839    9.1478 H     523  UNL523      0.0427
   4181 H          19.2344   23.8709   10.5537 H     523  UNL523      0.0427
   4182 H          21.3290   24.1503    9.2146 H     523  UNL523      0.0241
   4183 H          21.7057   23.5184   10.8249 H     523  UNL523      0.0241
   4184 H          21.7057   22.4327    9.4208 H     523  UNL523      0.0241
   4185 CL         18.8364   23.3652   14.1064 Cl    524  UNL524     -0.1257
   4186 C          20.1374   23.9137   13.0277 C.3   524  UNL524      0.0198
   4187 C          21.1489   22.8079   12.8113 C.3   524  UNL524     -0.0517
   4188 H          19.6844   24.2165   12.0795 H     524  UNL524      0.0427
   4189 H          20.6094   24.7876   13.4854 H     524  UNL524      0.0427
   4190 H          21.9474   23.1521   12.1462 H     524  UNL524      0.0241
   4191 H          21.6076   22.4995   13.7566 H     524  UNL524      0.0241
   4192 H          20.6838   21.9292   12.3525 H     524  UNL524      0.0241
   4193 CL         20.6919   23.1214   15.4973 Cl    525  UNL525     -0.1257
   4194 C          19.0396   23.6490   15.8820 C.3   525  UNL525      0.0198
   4195 C          18.5926   23.0698   17.2077 C.3   525  UNL525     -0.0517
   4196 H          19.0332   24.7422   15.9139 H     525  UNL525      0.0427
   4197 H          18.3826   23.3185   15.0726 H     525  UNL525      0.0427
   4198 H          17.5743   23.3986   17.4387 H     525  UNL525      0.0241
   4199 H          18.5957   21.9752   17.1833 H     525  UNL525      0.0241
   4200 H          19.2454   23.3971   18.0236 H     525  UNL525      0.0241
   4201 CL         21.3484   23.5642   17.5355 Cl    526  UNL526     -0.1257
   4202 C          20.9602   22.6825   19.0284 C.3   526  UNL526      0.0198
   4203 C          20.6671   23.6503   20.1554 C.3   526  UNL526     -0.0517
   4204 H          20.0940   22.0454   18.8285 H     526  UNL526      0.0427
   4205 H          21.8139   22.0454   19.2758 H     526  UNL526      0.0427
   4206 H          20.4288   23.1010   21.0718 H     526  UNL526      0.0241
   4207 H          21.5303   24.2915   20.3620 H     526  UNL526      0.0241
   4208 H          19.8126   24.2915   19.9153 H     526  UNL526      0.0241
   4209 CL         20.6479   24.1710   22.3562 Cl    527  UNL527     -0.1257
   4210 C          19.1048   23.6450   23.0625 C.3   527  UNL527      0.0198
   4211 C          18.5379   22.4745   22.2872 C.3   527  UNL527     -0.0517
   4212 H          19.2876   23.3684   24.1047 H     527  UNL527      0.0427
   4213 H          18.4167   24.4947   23.0412 H     527  UNL527      0.0427
   4214 H          17.5877   22.1553   22.7272 H     527  UNL527      0.0241
   4215 H          18.3514   22.7439   21.2424 H     527  UNL527      0.0241
   4216 H          19.2212   21.6190   22.3045 H     527  UNL527      0.0241
   4217 CL         18.6284   24.3546   25.6494 Cl    528  UNL528     -0.1257
   4218 C          19.6004   22.9307   26.0789 C.3   528  UNL528      0.0198
   4219 C          21.0291   23.1015   25.6074 C.3   528  UNL528     -0.0517
   4220 H          19.5617   22.8109   27.1653 H     528  UNL528      0.0427
   4221 H          19.1399   22.0548   25.6134 H     528  UNL528      0.0427
   4222 H          21.6223   22.2213   25.8750 H     528  UNL528      0.0241
   4223 H          21.0762   23.2214   24.5201 H     528  UNL528      0.0241
   4224 H          21.4974   23.9765   26.0700 H     528  UNL528      0.0241
   4225 CL         22.1854   24.4957   29.0041 Cl    529  UNL529     -0.1257
   4226 C          21.1370   23.0613   29.0041 C.3   529  UNL529      0.0198
   4227 C          19.6789   23.4696   29.0041 C.3   529  UNL529     -0.0517
   4228 H          21.3746   22.4696   28.1155 H     529  UNL529      0.0427
   4229 H          21.3746   22.4696   29.8926 H     529  UNL529      0.0427
   4230 H          19.0386   22.5817   29.0041 H     529  UNL529      0.0241
   4231 H          19.4331   24.0621   29.8915 H     529  UNL529      0.0241
   4232 H          19.4331   24.0621   28.1167 H     529  UNL529      0.0241
   4233 CL         19.0528   24.4796   33.0527 Cl    530  UNL530     -0.1257
   4234 C          20.0845   23.0557   32.7979 C.3   530  UNL530      0.0198
   4235 C          20.9264   23.2265   31.5510 C.3   530  UNL530     -0.0517
   4236 H          20.7184   22.9359   33.6810 H     530  UNL530      0.0427
   4237 H          19.4355   22.1798   32.7113 H     530  UNL530      0.0427
   4238 H          21.5594   22.3463   31.3999 H     530  UNL530      0.0241
   4239 H          20.2985   23.3464   30.6620 H     530  UNL530      0.0241
   4240 H          21.5798   24.1015   31.6305 H     530  UNL530      0.0241
   4241 CL         19.5134   21.7402   34.4818 Cl    531  UNL531     -0.1257
   4242 C          19.7301   23.1352   35.5605 C.3   531  UNL531      0.0198
   4243 C          21.2024   23.4151   35.7768 C.3   531  UNL531     -0.0517
   4244 H          19.2344   23.9960   35.1028 H     531  UNL531      0.0427
   4245 H          19.2344   22.9090   36.5086 H     531  UNL531      0.0427
   4246 H          21.3290   24.2753   36.4420 H     531  UNL531      0.0241
   4247 H          21.7057   22.5577   36.2357 H     531  UNL531      0.0241
   4248 H          21.7057   23.6433   34.8316 H     531  UNL531      0.0241
   4249 CL         18.2068   26.5906    0.9515 Cl    532  UNL532     -0.1257
   4250 C          19.7159   27.5122    0.7788 C.3   532  UNL532      0.0198
   4251 C          20.8400   26.6083    0.3184 C.3   532  UNL532     -0.0517
   4252 H          19.5410   28.3137    0.0554 H     532  UNL532      0.0427
   4253 H          19.9504   27.9605    1.7483 H     532  UNL532      0.0427
   4254 H          21.7665   27.1820    0.2140 H     532  UNL532      0.0241
   4255 H          21.0217   25.8034    1.0381 H     532  UNL532      0.0241
   4256 H          20.6128   26.1561   -0.6526 H     532  UNL532      0.0241
   4257 CL         22.2381   28.1771    3.5507 Cl    533  UNL533     -0.1257
   4258 C          21.5571   26.5361    3.5507 C.3   533  UNL533      0.0198
   4259 C          20.0439   26.5894    3.5507 C.3   533  UNL533     -0.0517
   4260 H          21.9273   26.0170    2.6621 H     533  UNL533      0.0427
   4261 H          21.9273   26.0170    4.4392 H     533  UNL533      0.0427
   4262 H          19.6308   25.5757    3.5507 H     533  UNL533      0.0241
   4263 H          19.6654   27.1072    4.4381 H     533  UNL533      0.0241
   4264 H          19.6654   27.1072    2.6633 H     533  UNL533      0.0241
   4265 CL         21.2825   28.4457    7.0614 Cl    534  UNL534     -0.1257
   4266 C          20.2987   27.1218    6.4010 C.3   534  UNL534      0.0198
   4267 C          19.8970   26.1602    7.4994 C.3   534  UNL534     -0.0517
   4268 H          19.4161   27.5609    5.9274 H     534  UNL534      0.0427
   4269 H          20.8898   26.6116    5.6353 H     534  UNL534      0.0427
   4270 H          19.2914   25.3473    7.0862 H     534  UNL534      0.0241
   4271 H          20.7757   25.7156    7.9782 H     534  UNL534      0.0241
   4272 H          19.3040   26.6637    8.2699 H     534  UNL534      0.0241
   4273 CL         22.2381   28.1771    9.7890 Cl    535  UNL535     -0.1257
   4274 C          21.5571   26.5361    9.7890 C.3   535  UNL535      0.0198
   4275 C          20.0439   26.5894    9.7890 C.3   535  UNL535     -0.0517
   4276 H          21.9273   26.0170    8.9004 H     535  UNL535      0.0427
   4277 H          21.9273   26.0170   10.6775 H     535  UNL535      0.0427
   4278 H          19.6308   25.5757    9.7890 H     535  UNL535      0.0241
   4279 H          19.6654   27.1072   10.6764 H     535  UNL535      0.0241
   4280 H          19.6654   27.1072    8.9016 H     535  UNL535      0.0241
   4281 CL         21.9881   28.1771   13.0332 Cl    536  UNL536     -0.1257
   4282 C          21.3071   26.5361   13.0332 C.3   536  UNL536      0.0198
   4283 C          19.7939   26.5894   13.0332 C.3   536  UNL536     -0.0517
   4284 H          21.6773   26.0170   12.1446 H     536  UNL536      0.0427
   4285 H          21.6773   26.0170   13.9217 H     536  UNL536      0.0427
   4286 H          19.3808   25.5757   13.0332 H     536  UNL536      0.0241
   4287 H          19.4154   27.1072   13.9206 H     536  UNL536      0.0241
   4288 H          19.4154   27.1072   12.1458 H     536  UNL536      0.0241
   4289 CL         22.2054   27.2461   15.0221 Cl    537  UNL537     -0.1257
   4290 C          20.9851   26.3644   15.9657 C.3   537  UNL537      0.0198
   4291 C          20.0638   27.3322   16.6780 C.3   537  UNL537     -0.0517
   4292 H          20.4221   25.7273   15.2777 H     537  UNL537      0.0427
   4293 H          21.5091   25.7273   16.6836 H     537  UNL537      0.0427
   4294 H          19.3147   26.7829   17.2572 H     537  UNL537      0.0241
   4295 H          20.6203   27.9734   17.3694 H     537  UNL537      0.0241
   4296 H          19.5347   27.9734   15.9654 H     537  UNL537      0.0241
   4297 CL         21.7465   25.8739   18.5017 Cl    538  UNL538     -0.1257
   4298 C          20.8775   26.6378   19.8501 C.3   538  UNL538      0.0198
   4299 C          19.4555   26.9662   19.4469 C.3   538  UNL538     -0.0517
   4300 H          20.8911   25.9448   20.6961 H     538  UNL538      0.0427
   4301 H          21.4206   27.5444   20.1312 H     538  UNL538      0.0427
   4302 H          18.9258   27.4363   20.2816 H     538  UNL538      0.0241
   4303 H          19.4336   27.6604   18.6004 H     538  UNL538      0.0241
   4304 H          18.9047   26.0630   19.1646 H     538  UNL538      0.0241
   4305 CL         22.8840   27.3711   22.7658 Cl    539  UNL539     -0.1257
   4306 C          21.3415   26.4894   22.7658 C.3   539  UNL539      0.0198
   4307 C          20.1770   27.4572   22.7658 C.3   539  UNL539     -0.0517
   4308 H          21.3169   25.8523   21.8772 H     539  UNL539      0.0427
   4309 H          21.3169   25.8523   23.6543 H     539  UNL539      0.0427
   4310 H          19.2301   26.9079   22.7658 H     539  UNL539      0.0241
   4311 H          20.1943   28.0984   23.6532 H     539  UNL539      0.0241
   4312 H          20.1943   28.0984   21.8784 H     539  UNL539      0.0241
   4313 CL         19.2823   28.5663   26.0099 Cl    540  UNL540     -0.1257
   4314 C          20.7617   27.5824   26.0099 C.3   540  UNL540      0.0198
   4315 C          20.4183   26.1076   26.0099 C.3   540  UNL540     -0.0517
   4316 H          21.3423   27.8458   25.1213 H     540  UNL540      0.0427
   4317 H          21.3423   27.8458   26.8984 H     540  UNL540      0.0427
   4318 H          21.3336   25.5072   26.0099 H     540  UNL540      0.0241
   4319 H          19.8373   25.8358   26.8973 H     540  UNL540      0.0241
   4320 H          19.8373   25.8358   25.1225 H     540  UNL540      0.0241
   4321 CL         22.4881   28.1771   28.9416 Cl    541  UNL541     -0.1257
   4322 C          21.8071   26.5361   28.9416 C.3   541  UNL541      0.0198
   4323 C          20.2939   26.5894   28.9416 C.3   541  UNL541     -0.0517
   4324 H          22.1773   26.0170   28.0530 H     541  UNL541      0.0427
   4325 H          22.1773   26.0170   29.8301 H     541  UNL541      0.0427
   4326 H          19.8808   25.5757   28.9416 H     541  UNL541      0.0241
   4327 H          19.9154   27.1072   29.8290 H     541  UNL541      0.0241
   4328 H          19.9154   27.1072   28.0542 H     541  UNL541      0.0241
   4329 CL         19.2198   28.6913   32.0608 Cl    542  UNL542     -0.1257
   4330 C          20.6992   27.7074   32.0608 C.3   542  UNL542      0.0198
   4331 C          20.3558   26.2326   32.0608 C.3   542  UNL542     -0.0517
   4332 H          21.2798   27.9708   31.1722 H     542  UNL542      0.0427
   4333 H          21.2798   27.9708   32.9493 H     542  UNL542      0.0427
   4334 H          21.2711   25.6322   32.0608 H     542  UNL542      0.0241
   4335 H          19.7748   25.9608   32.9482 H     542  UNL542      0.0241
   4336 H          19.7748   25.9608   31.1734 H     542  UNL542      0.0241
   4337 CL         22.2381   31.7340    0.6190 Cl    543  UNL543     -0.1257
   4338 C          21.5571   30.0930    0.6190 C.3   543  UNL543      0.0198
   4339 C          20.0439   30.1463    0.6190 C.3   543  UNL543     -0.0517
   4340 H          21.9273   29.5739   -0.2696 H     543  UNL543      0.0427
   4341 H          21.9273   29.5739    1.5075 H     543  UNL543      0.0427
   4342 H          19.6308   29.1325    0.6190 H     543  UNL543      0.0241
   4343 H          19.6654   30.6641    1.5064 H     543  UNL543      0.0241
   4344 H          19.6654   30.6641   -0.2684 H     543  UNL543      0.0241
   4345 CL         20.3153   32.3151    4.6864 Cl    544  UNL544     -0.1257
   4346 C          20.8057   30.9912    3.6077 C.3   544  UNL544      0.0198
   4347 C          19.6563   30.0295    3.3913 C.3   544  UNL544     -0.0517
   4348 H          21.1283   31.4303    2.6594 H     544  UNL544      0.0427
   4349 H          21.6579   30.4810    4.0653 H     544  UNL544      0.0427
   4350 H          19.9648   29.2166    2.7262 H     544  UNL544      0.0241
   4351 H          19.3279   29.5850    4.3365 H     544  UNL544      0.0241
   4352 H          18.7990   30.5330    2.9325 H     544  UNL544      0.0241
   4353 CL         22.6726   29.2235    6.8574 Cl    545  UNL545     -0.1257
   4354 C          20.9130   29.4695    6.8574 C.3   545  UNL545      0.0198
   4355 C          20.5838   30.9474    6.8574 C.3   545  UNL545     -0.0517
   4356 H          20.5039   28.9805    5.9688 H     545  UNL545      0.0427
   4357 H          20.5039   28.9805    7.7459 H     545  UNL545      0.0427
   4358 H          19.4987   31.0921    6.8574 H     545  UNL545      0.0241
   4359 H          20.9897   31.4441    7.7448 H     545  UNL545      0.0241
   4360 H          20.9897   31.4441    5.9700 H     545  UNL545      0.0241
   4361 CL         19.8884   29.1039    8.8409 Cl    546  UNL546     -0.1257
   4362 C          20.1051   30.4990    9.9195 C.3   546  UNL546      0.0198
   4363 C          21.5774   30.7788   10.1359 C.3   546  UNL546     -0.0517
   4364 H          19.6094   31.3597    9.4618 H     546  UNL546      0.0427
   4365 H          19.6094   30.2727   10.8677 H     546  UNL546      0.0427
   4366 H          21.7040   31.6390   10.8010 H     546  UNL546      0.0241
   4367 H          22.0807   29.9215   10.5947 H     546  UNL546      0.0241
   4368 H          22.0807   31.0071    9.1907 H     546  UNL546      0.0241
   4369 CL         20.5302   29.1039   14.4463 Cl    547  UNL547     -0.1257
   4370 C          20.0418   30.4990   13.4604 C.3   547  UNL547      0.0198
   4371 C          21.0742   30.7788   12.3886 C.3   547  UNL547     -0.0517
   4372 H          19.0697   30.2727   13.0134 H     547  UNL547      0.0427
   4373 H          19.9296   31.3597   14.1256 H     547  UNL547      0.0427
   4374 H          20.7675   31.6391   11.7850 H     547  UNL547      0.0241
   4375 H          22.0506   31.0071   12.8285 H     547  UNL547      0.0241
   4376 H          21.1917   29.9215   11.7178 H     547  UNL547      0.0241
   4377 CL         20.9465   30.1101   16.8120 Cl    548  UNL548     -0.1257
   4378 C          19.4040   30.6378   16.1056 C.3   548  UNL548      0.0198
   4379 C          18.2395   30.0586   16.8810 C.3   548  UNL548     -0.0517
   4380 H          19.3794   31.7310   16.1270 H     548  UNL548      0.0427
   4381 H          19.3794   30.3073   15.0635 H     548  UNL548      0.0427
   4382 H          17.2926   30.3873   16.4409 H     548  UNL548      0.0241
   4383 H          18.2568   28.9639   16.8636 H     548  UNL548      0.0241
   4384 H          18.2568   30.3858   17.9257 H     548  UNL548      0.0241
   4385 CL         22.8840   30.6155   19.5216 Cl    549  UNL549     -0.1257
   4386 C          21.3415   29.7338   19.5216 C.3   549  UNL549      0.0198
   4387 C          20.1770   30.7016   19.5216 C.3   549  UNL549     -0.0517
   4388 H          21.3169   29.0967   18.6330 H     549  UNL549      0.0427
   4389 H          21.3169   29.0967   20.4101 H     549  UNL549      0.0427
   4390 H          19.2301   30.1523   19.5216 H     549  UNL549      0.0241
   4391 H          20.1943   31.3428   20.4090 H     549  UNL549      0.0241
   4392 H          20.1943   31.3428   18.6342 H     549  UNL549      0.0241
   4393 CL         22.2381   31.7340   22.5783 Cl    550  UNL550     -0.1257
   4394 C          21.5571   30.0930   22.5783 C.3   550  UNL550      0.0198
   4395 C          20.0439   30.1463   22.5783 C.3   550  UNL550     -0.0517
   4396 H          21.9273   29.5739   21.6897 H     550  UNL550      0.0427
   4397 H          21.9273   29.5739   23.4668 H     550  UNL550      0.0427
   4398 H          19.6308   29.1325   22.5783 H     550  UNL550      0.0241
   4399 H          19.6654   30.6641   23.4657 H     550  UNL550      0.0241
   4400 H          19.6654   30.6641   21.6909 H     550  UNL550      0.0241
   4401 CL         22.4554   30.6780   24.5047 Cl    551  UNL551     -0.1257
   4402 C          21.2351   29.7963   25.4482 C.3   551  UNL551      0.0198
   4403 C          20.3138   30.7641   26.1605 C.3   551  UNL551     -0.0517
   4404 H          20.6721   29.1592   24.7603 H     551  UNL551      0.0427
   4405 H          21.7591   29.1592   26.1662 H     551  UNL551      0.0427
   4406 H          19.5647   30.2148   26.7397 H     551  UNL551      0.0241
   4407 H          20.8703   31.4053   26.8520 H     551  UNL551      0.0241
   4408 H          19.7847   31.4053   25.4479 H     551  UNL551      0.0241
   4409 CL         19.5134   29.1039   30.0773 Cl    552  UNL552     -0.1257
   4410 C          19.7301   30.4990   28.9986 C.3   552  UNL552      0.0198
   4411 C          21.2024   30.7788   28.7822 C.3   552  UNL552     -0.0517
   4412 H          19.2344   30.2727   28.0504 H     552  UNL552      0.0427
   4413 H          19.2344   31.3597   29.4563 H     552  UNL552      0.0427
   4414 H          21.3290   31.6391   28.1171 H     552  UNL552      0.0241
   4415 H          21.7057   31.0071   29.7275 H     552  UNL552      0.0241
   4416 H          21.7057   29.9215   28.3234 H     552  UNL552      0.0241
   4417 CL         22.6340   30.8030   32.4358 Cl    553  UNL553     -0.1257
   4418 C          21.0915   29.9213   32.4358 C.3   553  UNL553      0.0198
   4419 C          19.9270   30.8891   32.4358 C.3   553  UNL553     -0.0517
   4420 H          21.0669   29.2842   31.5472 H     553  UNL553      0.0427
   4421 H          21.0669   29.2842   33.3243 H     553  UNL553      0.0427
   4422 H          18.9801   30.3398   32.4358 H     553  UNL553      0.0241
   4423 H          19.9443   31.5303   33.3232 H     553  UNL553      0.0241
   4424 H          19.9443   31.5303   31.5484 H     553  UNL553      0.0241
   4425 CL         19.2634   29.1039   34.3568 Cl    554  UNL554     -0.1257
   4426 C          19.4801   30.4990   35.4355 C.3   554  UNL554      0.0198
   4427 C          20.9524   30.7788   35.6518 C.3   554  UNL554     -0.0517
   4428 H          18.9844   31.3597   34.9778 H     554  UNL554      0.0427
   4429 H          18.9844   30.2727   36.3836 H     554  UNL554      0.0427
   4430 H          21.0790   31.6390   36.3170 H     554  UNL554      0.0241
   4431 H          21.4557   29.9215   36.1107 H     554  UNL554      0.0241
   4432 H          21.4557   31.0071   34.7066 H     554  UNL554      0.0241
   4433 CL         21.7160   33.2520   -0.8292 Cl    555  UNL555     -0.1257
   4434 C          20.3127   33.4068    0.2495 C.3   555  UNL555      0.0198
   4435 C          19.9680   34.8653    0.4659 C.3   555  UNL555     -0.0517
   4436 H          19.4747   32.8735   -0.2082 H     555  UNL555      0.0427
   4437 H          20.5607   32.9216    1.1977 H     555  UNL555      0.0427
   4438 H          19.1031   34.9537    1.1310 H     555  UNL555      0.0241
   4439 H          20.8023   35.4060    0.9247 H     555  UNL555      0.0241
   4440 H          19.7177   35.3580   -0.4794 H     555  UNL555      0.0241
   4441 CL         21.9881   35.5409    3.4882 Cl    556  UNL556     -0.1257
   4442 C          21.3071   33.8998    3.4882 C.3   556  UNL556      0.0198
   4443 C          19.7939   33.9532    3.4882 C.3   556  UNL556     -0.0517
   4444 H          21.6773   33.3808    2.5996 H     556  UNL556      0.0427
   4445 H          21.6773   33.3808    4.3767 H     556  UNL556      0.0427
   4446 H          19.3808   32.9394    3.4882 H     556  UNL556      0.0241
   4447 H          19.4154   34.4710    4.3756 H     556  UNL556      0.0241
   4448 H          19.4154   34.4710    2.6008 H     556  UNL556      0.0241
   4449 CL         21.7465   34.9527    5.5967 Cl    557  UNL557     -0.1257
   4450 C          20.8775   33.8399    6.6753 C.3   557  UNL557      0.0198
   4451 C          19.4555   34.3128    6.8917 C.3   557  UNL557     -0.0517
   4452 H          20.8911   32.8468    6.2176 H     557  UNL557      0.0427
   4453 H          21.4206   33.7961    7.6235 H     557  UNL557      0.0427
   4454 H          18.9258   33.6233    7.5568 H     557  UNL557      0.0241
   4455 H          19.4336   35.3067    7.3505 H     557  UNL557      0.0241
   4456 H          18.9047   34.3587    5.9465 H     557  UNL557      0.0241
   4457 CL         19.4924   35.3579   11.0443 Cl    558  UNL558     -0.1257
   4458 C          20.7827   34.5822   10.1008 C.3   558  UNL558      0.0198
   4459 C          20.2546   33.3548    9.3885 C.3   558  UNL558     -0.0517
   4460 H          21.1626   35.3144    9.3827 H     558  UNL558      0.0427
   4461 H          21.5897   34.3148   10.7886 H     558  UNL558      0.0427
   4462 H          21.0540   32.8817    8.8093 H     558  UNL558      0.0241
   4463 H          19.8728   32.6163   10.1011 H     558  UNL558      0.0241
   4464 H          19.4463   33.6146    8.6970 H     558  UNL558      0.0241
   4465 CL         21.9881   35.4159   13.2832 Cl    559  UNL559     -0.1257
   4466 C          21.3071   33.7748   13.2832 C.3   559  UNL559      0.0198
   4467 C          19.7939   33.8282   13.2832 C.3   559  UNL559     -0.0517
   4468 H          21.6773   33.2558   12.3946 H     559  UNL559      0.0427
   4469 H          21.6773   33.2558   14.1717 H     559  UNL559      0.0427
   4470 H          19.3808   32.8144   13.2832 H     559  UNL559      0.0241
   4471 H          19.4154   34.3460   14.1706 H     559  UNL559      0.0241
   4472 H          19.4154   34.3460   12.3958 H     559  UNL559      0.0241
   4473 CL         22.5715   34.2973   16.3399 Cl    560  UNL560     -0.1257
   4474 C          21.0290   33.4156   16.3399 C.3   560  UNL560      0.0198
   4475 C          19.8645   34.3834   16.3399 C.3   560  UNL560     -0.0517
   4476 H          21.0044   32.7785   15.4513 H     560  UNL560      0.0427
   4477 H          21.0044   32.7785   17.2284 H     560  UNL560      0.0427
   4478 H          18.9176   33.8341   16.3399 H     560  UNL560      0.0241
   4479 H          19.8818   35.0246   17.2273 H     560  UNL560      0.0241
   4480 H          19.8818   35.0246   15.4525 H     560  UNL560      0.0241
   4481 CL         21.7465   34.8277   18.3234 Cl    561  UNL561     -0.1257
   4482 C          20.8775   33.7149   19.4021 C.3   561  UNL561      0.0198
   4483 C          19.4555   34.1878   19.6184 C.3   561  UNL561     -0.0517
   4484 H          20.8911   32.7218   18.9444 H     561  UNL561      0.0427
   4485 H          21.4206   33.6711   20.3502 H     561  UNL561      0.0427
   4486 H          18.9258   33.4983   20.2836 H     561  UNL561      0.0241
   4487 H          19.4336   35.1817   20.0773 H     561  UNL561      0.0241
   4488 H          18.9047   34.2337   18.6732 H     561  UNL561      0.0241
   4489 CL         20.8153   35.6220   23.7764 Cl    562  UNL562     -0.1257
   4490 C          21.3057   34.2981   22.6978 C.3   562  UNL562      0.0198
   4491 C          20.1563   33.3364   22.4814 C.3   562  UNL562     -0.0517
   4492 H          21.6283   34.7372   21.7495 H     562  UNL562      0.0427
   4493 H          22.1579   33.7879   23.1554 H     562  UNL562      0.0427
   4494 H          20.4648   32.5235   21.8163 H     562  UNL562      0.0241
   4495 H          19.8279   32.8919   23.4266 H     562  UNL562      0.0241
   4496 H          19.2990   33.8399   22.0226 H     562  UNL562      0.0241
   4497 CL         18.2837   36.0377   26.2320 Cl    563  UNL563     -0.1257
   4498 C          18.4045   34.4120   25.5256 C.3   563  UNL563      0.0198
   4499 C          19.3946   33.5687   26.3010 C.3   563  UNL563     -0.0517
   4500 H          17.4088   33.9599   25.5470 H     563  UNL563      0.0427
   4501 H          18.7181   34.5192   24.4835 H     563  UNL563      0.0427
   4502 H          19.4643   32.5687   25.8609 H     563  UNL563      0.0241
   4503 H          20.3944   34.0146   26.2836 H     563  UNL563      0.0241
   4504 H          19.0869   33.4560   27.3458 H     563  UNL563      0.0241
   4505 CL         22.2976   33.0304   29.0666 Cl    564  UNL564     -0.1257
   4506 C          20.5380   33.2764   29.0666 C.3   564  UNL564      0.0198
   4507 C          20.2088   34.7543   29.0666 C.3   564  UNL564     -0.0517
   4508 H          20.1289   32.7874   28.1780 H     564  UNL564      0.0427
   4509 H          20.1289   32.7874   29.9551 H     564  UNL564      0.0427
   4510 H          19.1237   34.8990   29.0666 H     564  UNL564      0.0241
   4511 H          20.6147   35.2510   29.9540 H     564  UNL564      0.0241
   4512 H          20.6147   35.2510   28.1792 H     564  UNL564      0.0241
   4513 CL         22.6810   34.7102   32.5696 Cl    565  UNL565     -0.1257
   4514 C          21.2754   33.8969   31.8488 C.3   565  UNL565      0.0198
   4515 C          20.0063   34.2844   32.5782 C.3   565  UNL565     -0.0517
   4516 H          21.2216   34.1861   30.7955 H     565  UNL565      0.0427
   4517 H          21.4430   32.8178   31.9077 H     565  UNL565      0.0427
   4518 H          19.1445   33.7802   32.1295 H     565  UNL565      0.0241
   4519 H          20.0523   33.9974   33.6339 H     565  UNL565      0.0241
   4520 H          19.8312   35.3638   32.5231 H     565  UNL565      0.0241
   4521 CL         22.4226   33.1554   35.6175 Cl    566  UNL566     -0.1257
   4522 C          20.6630   33.4014   35.6175 C.3   566  UNL566      0.0198
   4523 C          20.3338   34.8793   35.6175 C.3   566  UNL566     -0.0517
   4524 H          20.2539   32.9124   34.7289 H     566  UNL566      0.0427
   4525 H          20.2539   32.9124   36.5060 H     566  UNL566      0.0427
   4526 H          19.2487   35.0240   35.6175 H     566  UNL566      0.0241
   4527 H          20.7397   35.3760   36.5049 H     566  UNL566      0.0241
   4528 H          20.7397   35.3760   34.7301 H     566  UNL566      0.0241
   4529 CL         27.6385    2.9669    0.3690 Cl    567  UNL567     -0.1257
   4530 C          26.5901    1.5325    0.3690 C.3   567  UNL567      0.0198
   4531 C          25.1321    1.9408    0.3690 C.3   567  UNL567     -0.0517
   4532 H          26.8277    0.9409   -0.5196 H     567  UNL567      0.0427
   4533 H          26.8277    0.9409    1.2575 H     567  UNL567      0.0427
   4534 H          24.4918    1.0529    0.3690 H     567  UNL567      0.0241
   4535 H          24.8862    2.5333    1.2564 H     567  UNL567      0.0241
   4536 H          24.8862    2.5333   -0.5184 H     567  UNL567      0.0241
   4537 CL         25.6434    3.8601    4.8114 Cl    568  UNL568     -0.1257
   4538 C          26.1338    2.5361    3.7327 C.3   568  UNL568      0.0198
   4539 C          24.9844    1.5745    3.5163 C.3   568  UNL568     -0.0517
   4540 H          26.4564    2.9753    2.7844 H     568  UNL568      0.0427
   4541 H          26.9860    2.0260    4.1903 H     568  UNL568      0.0427
   4542 H          25.2929    0.7616    2.8512 H     568  UNL568      0.0241
   4543 H          24.6560    1.1299    4.4615 H     568  UNL568      0.0241
   4544 H          24.1272    2.0780    3.0575 H     568  UNL568      0.0241
   4545 CL         27.4412    3.2790    6.7324 Cl    569  UNL569     -0.1257
   4546 C          26.7602    1.6379    6.7324 C.3   569  UNL569      0.0198
   4547 C          25.2470    1.6912    6.7324 C.3   569  UNL569     -0.0517
   4548 H          27.1305    1.1189    5.8438 H     569  UNL569      0.0427
   4549 H          27.1305    1.1189    7.6209 H     569  UNL569      0.0427
   4550 H          24.8339    0.6775    6.7324 H     569  UNL569      0.0241
   4551 H          24.8685    2.2091    7.6198 H     569  UNL569      0.0241
   4552 H          24.8685    2.2091    5.8450 H     569  UNL569      0.0241
   4553 CL         27.8997    2.3479    9.9140 Cl    570  UNL570     -0.1257
   4554 C          26.3572    1.4662    9.9140 C.3   570  UNL570      0.0198
   4555 C          25.1926    2.4340    9.9140 C.3   570  UNL570     -0.0517
   4556 H          26.3326    0.8291    9.0254 H     570  UNL570      0.0427
   4557 H          26.3326    0.8291   10.8025 H     570  UNL570      0.0427
   4558 H          24.2458    1.8847    9.9140 H     570  UNL570      0.0241
   4559 H          25.2099    3.0752   10.8014 H     570  UNL570      0.0241
   4560 H          25.2099    3.0752    9.0266 H     570  UNL570      0.0241
   4561 CL         27.4412    2.1294   11.7964 Cl    571  UNL571     -0.1257
   4562 C          26.7602    1.7163   13.3846 C.3   571  UNL571      0.0198
   4563 C          25.2470    1.7297   13.3330 C.3   571  UNL571     -0.0517
   4564 H          27.1305    0.7257   13.6633 H     571  UNL571      0.0427
   4565 H          27.1305    2.4456   14.1106 H     571  UNL571      0.0427
   4566 H          24.8339    1.4746   14.3141 H     571  UNL571      0.0241
   4567 H          24.8685    2.7189   13.0552 H     571  UNL571      0.0241
   4568 H          24.8685    1.0013   12.6085 H     571  UNL571      0.0241
   4569 CL         24.4665    0.5239   17.2881 Cl    572  UNL572     -0.1257
   4570 C          24.6833    1.9190   16.2094 C.3   572  UNL572      0.0198
   4571 C          26.1555    2.1988   15.9930 C.3   572  UNL572     -0.0517
   4572 H          24.1876    1.6926   15.2612 H     572  UNL572      0.0427
   4573 H          24.1876    2.7797   16.6670 H     572  UNL572      0.0427
   4574 H          26.2821    3.0590   15.3279 H     572  UNL572      0.0241
   4575 H          26.6589    2.4271   16.9383 H     572  UNL572      0.0241
   4576 H          26.6589    1.3415   15.5342 H     572  UNL572      0.0241
   4577 CL         26.3950    1.8426   18.6790 Cl    573  UNL573     -0.1257
   4578 C          24.7427    2.3703   19.0637 C.3   573  UNL573      0.0198
   4579 C          24.2957    1.7911   20.3894 C.3   573  UNL573     -0.0517
   4580 H          24.7363    3.4634   19.0956 H     573  UNL573      0.0427
   4581 H          24.0858    2.0397   18.2543 H     573  UNL573      0.0427
   4582 H          23.2774    2.1198   20.6204 H     573  UNL573      0.0241
   4583 H          24.2988    0.6964   20.3650 H     573  UNL573      0.0241
   4584 H          24.9485    2.1183   21.2053 H     573  UNL573      0.0241
   4585 CL         27.8372    2.1487   22.9830 Cl    574  UNL574     -0.1257
   4586 C          26.2947    1.4512   22.4437 C.3   574  UNL574      0.0198
   4587 C          25.1301    2.2168   23.0357 C.3   574  UNL574     -0.0517
   4588 H          26.2701    1.4907   21.3510 H     574  UNL574      0.0427
   4589 H          26.2701    0.4037   22.7569 H     574  UNL574      0.0427
   4590 H          24.1833    1.7823   22.6997 H     574  UNL574      0.0241
   4591 H          25.1474    2.1813   24.1299 H     574  UNL574      0.0241
   4592 H          25.1474    3.2669   22.7259 H     574  UNL574      0.0241
   4593 CL         26.6497    0.7272   25.4703 Cl    575  UNL575     -0.1257
   4594 C          25.1072    0.6105   26.3443 C.3   575  UNL575      0.0198
   4595 C          23.9426    0.7386   25.3850 C.3   575  UNL575     -0.0517
   4596 H          25.0826   -0.3546   26.8582 H     575  UNL575      0.0427
   4597 H          25.0826    1.4069   27.0934 H     575  UNL575      0.0427
   4598 H          22.9958    0.6659   25.9295 H     575  UNL575      0.0241
   4599 H          23.9599    1.7030   24.8669 H     575  UNL575      0.0241
   4600 H          23.9599   -0.0561   24.6320 H     575  UNL575      0.0241
   4601 CL         27.7122    2.4729   29.0041 Cl    576  UNL576     -0.1257
   4602 C          26.1697    1.5912   29.0041 C.3   576  UNL576      0.0198
   4603 C          25.0051    2.5590   29.0041 C.3   576  UNL576     -0.0517
   4604 H          26.1451    0.9541   28.1155 H     576  UNL576      0.0427
   4605 H          26.1451    0.9541   29.8926 H     576  UNL576      0.0427
   4606 H          24.0583    2.0097   29.0041 H     576  UNL576      0.0241
   4607 H          25.0224    3.2002   29.8915 H     576  UNL576      0.0241
   4608 H          25.0224    3.2002   28.1167 H     576  UNL576      0.0241
   4609 CL         27.7010    3.0294   32.2483 Cl    577  UNL577     -0.1257
   4610 C          26.6526    1.5950   32.2483 C.3   577  UNL577      0.0198
   4611 C          25.1946    2.0033   32.2483 C.3   577  UNL577     -0.0517
   4612 H          26.8902    1.0034   31.3597 H     577  UNL577      0.0427
   4613 H          26.8902    1.0034   33.1368 H     577  UNL577      0.0427
   4614 H          24.5543    1.1154   32.2483 H     577  UNL577      0.0241
   4615 H          24.9487    2.5958   33.1357 H     577  UNL577      0.0241
   4616 H          24.9487    2.5958   31.3609 H     577  UNL577      0.0241
   4617 CL         25.6827    2.0924   36.5472 Cl    578  UNL578     -0.1257
   4618 C          24.5574    1.2244   35.4809 C.3   578  UNL578      0.0198
   4619 C          23.5319    2.1771   34.9034 C.3   578  UNL578     -0.0517
   4620 H          25.1416    0.7537   34.6851 H     578  UNL578      0.0427
   4621 H          24.0715    0.4409   36.0690 H     578  UNL578      0.0427
   4622 H          22.8420    1.6364   34.2477 H     578  UNL578      0.0241
   4623 H          22.9422    2.6521   35.6943 H     578  UNL578      0.0241
   4624 H          24.0109    2.9645   34.3122 H     578  UNL578      0.0241
   4625 CL         27.7122    5.9048    0.3690 Cl    579  UNL579     -0.1257
   4626 C          26.1697    5.0231    0.3690 C.3   579  UNL579      0.0198
   4627 C          25.0051    5.9909    0.3690 C.3   579  UNL579     -0.0517
   4628 H          26.1451    4.3860   -0.5196 H     579  UNL579      0.0427
   4629 H          26.1451    4.3860    1.2575 H     579  UNL579      0.0427
   4630 H          24.0583    5.4416    0.3690 H     579  UNL579      0.0241
   4631 H          25.0224    6.6321    1.2564 H     579  UNL579      0.0241
   4632 H          25.0224    6.6321   -0.5184 H     579  UNL579      0.0241
   4633 CL         27.9622    6.0298    3.6757 Cl    580  UNL580     -0.1257
   4634 C          26.4197    5.1481    3.6757 C.3   580  UNL580      0.0198
   4635 C          25.2551    6.1159    3.6757 C.3   580  UNL580     -0.0517
   4636 H          26.3951    4.5110    2.7871 H     580  UNL580      0.0427
   4637 H          26.3951    4.5110    4.5642 H     580  UNL580      0.0427
   4638 H          24.3083    5.5666    3.6757 H     580  UNL580      0.0241
   4639 H          25.2724    6.7571    4.5631 H     580  UNL580      0.0241
   4640 H          25.2724    6.7571    2.7883 H     580  UNL580      0.0241
   4641 CL         24.8415    4.1433    5.7842 Cl    581  UNL581     -0.1257
   4642 C          25.0583    5.5383    6.8628 C.3   581  UNL581      0.0198
   4643 C          26.5305    5.8182    7.0792 C.3   581  UNL581     -0.0517
   4644 H          24.5626    6.3991    6.4051 H     581  UNL581      0.0427
   4645 H          24.5626    5.3121    7.8110 H     581  UNL581      0.0427
   4646 H          26.6571    6.6784    7.7443 H     581  UNL581      0.0241
   4647 H          27.0339    4.9608    7.5380 H     581  UNL581      0.0241
   4648 H          27.0339    6.0464    6.1340 H     581  UNL581      0.0241
   4649 CL         27.9622    5.9048    9.9140 Cl    582  UNL582     -0.1257
   4650 C          26.4197    5.0231    9.9140 C.3   582  UNL582      0.0198
   4651 C          25.2551    5.9909    9.9140 C.3   582  UNL582     -0.0517
   4652 H          26.3951    4.3860    9.0254 H     582  UNL582      0.0427
   4653 H          26.3951    4.3860   10.8025 H     582  UNL582      0.0427
   4654 H          24.3083    5.4416    9.9140 H     582  UNL582      0.0241
   4655 H          25.2724    6.6321   10.8014 H     582  UNL582      0.0241
   4656 H          25.2724    6.6321    9.0266 H     582  UNL582      0.0241
   4657 CL         24.3439    5.5533   11.4683 Cl    583  UNL583     -0.1257
   4658 C          25.1752    5.2069   12.9999 C.3   583  UNL583      0.0198
   4659 C          26.4723    5.9832   13.0871 C.3   583  UNL583     -0.0517
   4660 H          24.5031    5.4805   13.8181 H     583  UNL583      0.0427
   4661 H          25.3630    4.1306   13.0460 H     583  UNL583      0.0427
   4662 H          26.9793    5.7655   14.0326 H     583  UNL583      0.0241
   4663 H          27.1511    5.7141   12.2713 H     583  UNL583      0.0241
   4664 H          26.2923    7.0624   13.0424 H     583  UNL583      0.0241
   4665 CL         27.8372    6.0298   16.2149 Cl    584  UNL584     -0.1257
   4666 C          26.2947    5.1481   16.2149 C.3   584  UNL584      0.0198
   4667 C          25.1301    6.1159   16.2149 C.3   584  UNL584     -0.0517
   4668 H          26.2701    4.5110   15.3263 H     584  UNL584      0.0427
   4669 H          26.2701    4.5110   17.1034 H     584  UNL584      0.0427
   4670 H          24.1833    5.5666   16.2149 H     584  UNL584      0.0241
   4671 H          25.1474    6.7571   17.1023 H     584  UNL584      0.0241
   4672 H          25.1474    6.7571   15.3275 H     584  UNL584      0.0241
   4673 CL         26.1765    5.7173   21.5076 Cl    585  UNL585     -0.1257
   4674 C          25.7883    4.8356   20.0148 C.3   585  UNL585      0.0198
   4675 C          25.4952    5.8034   18.8878 C.3   585  UNL585     -0.0517
   4676 H          26.6421    4.1985   19.7673 H     585  UNL585      0.0427
   4677 H          24.9222    4.1985   20.2146 H     585  UNL585      0.0427
   4678 H          25.2569    5.2541   17.9714 H     585  UNL585      0.0241
   4679 H          24.6407    6.4446   19.1279 H     585  UNL585      0.0241
   4680 H          26.3584    6.4446   18.6812 H     585  UNL585      0.0241
   4681 CL         27.4710    6.0298   23.8335 Cl    586  UNL586     -0.1257
   4682 C          26.2507    5.1481   22.8900 C.3   586  UNL586      0.0198
   4683 C          25.3294    6.1159   22.1777 C.3   586  UNL586     -0.0517
   4684 H          26.7748    4.5110   22.1720 H     586  UNL586      0.0427
   4685 H          25.6877    4.5110   23.5778 H     586  UNL586      0.0427
   4686 H          24.5804    5.5666   21.5985 H     586  UNL586      0.0241
   4687 H          24.8003    6.7571   22.8903 H     586  UNL586      0.0241
   4688 H          25.8859    6.7571   21.4862 H     586  UNL586      0.0241
   4689 CL         27.1912    5.2733   26.0724 Cl    587  UNL587     -0.1257
   4690 C          26.5102    3.6323   26.0724 C.3   587  UNL587      0.0198
   4691 C          24.9970    3.6856   26.0724 C.3   587  UNL587     -0.0517
   4692 H          26.8805    3.1132   25.1838 H     587  UNL587      0.0427
   4693 H          26.8805    3.1132   26.9609 H     587  UNL587      0.0427
   4694 H          24.5839    2.6719   26.0724 H     587  UNL587      0.0241
   4695 H          24.6185    4.2035   26.9598 H     587  UNL587      0.0241
   4696 H          24.6185    4.2035   25.1850 H     587  UNL587      0.0241
   4697 CL         28.0872    5.7798   28.9416 Cl    588  UNL588     -0.1257
   4698 C          26.5447    4.8981   28.9416 C.3   588  UNL588      0.0198
   4699 C          25.3801    5.8659   28.9416 C.3   588  UNL588     -0.0517
   4700 H          26.5201    4.2610   28.0530 H     588  UNL588      0.0427
   4701 H          26.5201    4.2610   29.8301 H     588  UNL588      0.0427
   4702 H          24.4333    5.3166   28.9416 H     588  UNL588      0.0241
   4703 H          25.3974    6.5071   29.8290 H     588  UNL588      0.0241
   4704 H          25.3974    6.5071   28.0542 H     588  UNL588      0.0241
   4705 CL         28.0872    5.6548   32.3108 Cl    589  UNL589     -0.1257
   4706 C          26.5447    4.7731   32.3108 C.3   589  UNL589      0.0198
   4707 C          25.3801    5.7409   32.3108 C.3   589  UNL589     -0.0517
   4708 H          26.5201    4.1360   31.4222 H     589  UNL589      0.0427
   4709 H          26.5201    4.1360   33.1993 H     589  UNL589      0.0427
   4710 H          24.4333    5.1916   32.3108 H     589  UNL589      0.0241
   4711 H          25.3974    6.3821   33.1982 H     589  UNL589      0.0241
   4712 H          25.3974    6.3821   31.4234 H     589  UNL589      0.0241
   4713 CL         26.9496    6.2476   34.4193 Cl    590  UNL590     -0.1257
   4714 C          26.0807    5.1349   35.4980 C.3   590  UNL590      0.0198
   4715 C          24.6586    5.6078   35.7143 C.3   590  UNL590     -0.0517
   4716 H          26.0942    4.1417   35.0403 H     590  UNL590      0.0427
   4717 H          26.6238    5.0910   36.4461 H     590  UNL590      0.0427
   4718 H          24.1289    4.9182   36.3795 H     590  UNL590      0.0241
   4719 H          24.6367    6.6017   36.1732 H     590  UNL590      0.0241
   4720 H          24.1078    5.6536   34.7691 H     590  UNL590      0.0241
   4721 CL         27.8372    9.4617    1.3632 Cl    591  UNL591     -0.1257
   4722 C          26.2947    8.5800    1.3632 C.3   591  UNL591      0.0198
   4723 C          25.1301    9.5478    1.3632 C.3   591  UNL591     -0.0517
   4724 H          26.2701    7.9429    0.4746 H     591  UNL591      0.0427
   4725 H          26.2701    7.9429    2.2517 H     591  UNL591      0.0427
   4726 H          24.1833    8.9985    1.3632 H     591  UNL591      0.0241
   4727 H          25.1474   10.1890    2.2506 H     591  UNL591      0.0241
   4728 H          25.1474   10.1890    0.4758 H     591  UNL591      0.0241
   4729 CL         27.5149   10.1531    5.4506 Cl    592  UNL592     -0.1257
   4730 C          26.8135    8.6531    4.8067 C.3   592  UNL592      0.0198
   4731 C          25.4416    8.9168    4.2225 C.3   592  UNL592     -0.0517
   4732 H          27.4924    8.2636    4.0429 H     592  UNL592      0.0427
   4733 H          26.7546    7.9297    5.6247 H     592  UNL592      0.0427
   4734 H          25.0151    7.9891    3.8277 H     592  UNL592      0.0241
   4735 H          24.7556    9.3064    4.9817 H     592  UNL592      0.0241
   4736 H          25.4924    9.6399    3.4019 H     592  UNL592      0.0241
   4737 CL         27.8372    9.4617    7.7265 Cl    593  UNL593     -0.1257
   4738 C          26.2947    8.5800    7.7265 C.3   593  UNL593      0.0198
   4739 C          25.1301    9.5478    7.7265 C.3   593  UNL593     -0.0517
   4740 H          26.2701    7.9429    6.8379 H     593  UNL593      0.0427
   4741 H          26.2701    7.9429    8.6150 H     593  UNL593      0.0427
   4742 H          24.1833    8.9985    7.7265 H     593  UNL593      0.0241
   4743 H          25.1474   10.1890    8.6139 H     593  UNL593      0.0241
   4744 H          25.1474   10.1890    6.8391 H     593  UNL593      0.0241
   4745 CL         27.5149   10.1531   11.8139 Cl    594  UNL594     -0.1257
   4746 C          26.8135    8.6531   11.1701 C.3   594  UNL594      0.0198
   4747 C          25.4416    8.9168   10.5859 C.3   594  UNL594     -0.0517
   4748 H          27.4924    8.2636   10.4063 H     594  UNL594      0.0427
   4749 H          26.7546    7.9297   11.9881 H     594  UNL594      0.0427
   4750 H          25.0151    7.9891   10.1911 H     594  UNL594      0.0241
   4751 H          24.7556    9.3064   11.3451 H     594  UNL594      0.0241
   4752 H          25.4924    9.6399    9.7653 H     594  UNL594      0.0241
   4753 CL         27.8372    9.4617   14.5899 Cl    595  UNL595     -0.1257
   4754 C          26.2947    8.5800   14.5899 C.3   595  UNL595      0.0198
   4755 C          25.1301    9.5478   14.5899 C.3   595  UNL595     -0.0517
   4756 H          26.2701    7.9429   13.7013 H     595  UNL595      0.0427
   4757 H          26.2701    7.9429   15.4784 H     595  UNL595      0.0427
   4758 H          24.1833    8.9985   14.5899 H     595  UNL595      0.0241
   4759 H          25.1474   10.1890   15.4773 H     595  UNL595      0.0241
   4760 H          25.1474   10.1890   13.7025 H     595  UNL595      0.0241
   4761 CL         27.0423    9.8655   16.3444 Cl    596  UNL596     -0.1257
   4762 C          26.7646    8.7691   17.7146 C.3   596  UNL596      0.0198
   4763 C          25.2810    8.5898   17.9586 C.3   596  UNL596     -0.0517
   4764 H          27.2383    7.8112   17.4818 H     596  UNL596      0.0427
   4765 H          27.2537    9.1972   18.5940 H     596  UNL596      0.0427
   4766 H          25.1168    7.9135   18.8036 H     596  UNL596      0.0241
   4767 H          24.7994    9.5448   18.1931 H     596  UNL596      0.0241
   4768 H          24.7841    8.1606   17.0824 H     596  UNL596      0.0241
   4769 CL         26.6497    8.8314   20.6687 Cl    597  UNL597     -0.1257
   4770 C          25.1072    9.3590   21.3750 C.3   597  UNL597      0.0198
   4771 C          23.9426    8.7798   20.5997 C.3   597  UNL597     -0.0517
   4772 H          25.0826    9.0284   22.4172 H     597  UNL597      0.0427
   4773 H          25.0826   10.4521   21.3537 H     597  UNL597      0.0427
   4774 H          22.9958    9.1086   21.0397 H     597  UNL597      0.0241
   4775 H          23.9599    9.1070   19.5549 H     597  UNL597      0.0241
   4776 H          23.9599    7.6852   20.6171 H     597  UNL597      0.0241
   4777 CL         25.1497    7.0814   25.6628 Cl    598  UNL598     -0.1257
   4778 C          23.6072    7.6090   26.3692 C.3   598  UNL598      0.0198
   4779 C          22.4426    7.0298   25.5939 C.3   598  UNL598     -0.0517
   4780 H          23.5826    7.2784   27.4114 H     598  UNL598      0.0427
   4781 H          23.5826    8.7021   26.3479 H     598  UNL598      0.0427
   4782 H          21.4958    7.3586   26.0339 H     598  UNL598      0.0241
   4783 H          22.4599    7.3570   24.5491 H     598  UNL598      0.0241
   4784 H          22.4599    5.9352   25.6112 H     598  UNL598      0.0241
   4785 CL         27.3885   10.1432   29.1291 Cl    599  UNL599     -0.1257
   4786 C          26.3401    8.7088   29.1291 C.3   599  UNL599      0.0198
   4787 C          24.8821    9.1171   29.1291 C.3   599  UNL599     -0.0517
   4788 H          26.5777    8.1171   28.2405 H     599  UNL599      0.0427
   4789 H          26.5777    8.1171   30.0176 H     599  UNL599      0.0427
   4790 H          24.2418    8.2292   29.1291 H     599  UNL599      0.0241
   4791 H          24.6362    9.7095   30.0165 H     599  UNL599      0.0241
   4792 H          24.6362    9.7095   28.2417 H     599  UNL599      0.0241
   4793 CL         24.3439    7.6376   31.8020 Cl    600  UNL600     -0.1257
   4794 C          25.1752    9.0327   32.5227 C.3   600  UNL600      0.0198
   4795 C          26.4723    9.3126   31.7934 C.3   600  UNL600     -0.0517
   4796 H          24.5031    9.8935   32.4639 H     600  UNL600      0.0427
   4797 H          25.3630    8.8064   33.5761 H     600  UNL600      0.0427
   4798 H          26.9793   10.1728   32.2421 H     600  UNL600      0.0241
   4799 H          27.1511    8.4552   31.8485 H     600  UNL600      0.0241
   4800 H          26.2923    9.5408   30.7377 H     600  UNL600      0.0241
   4801 CL         28.0247   12.8311    0.4940 Cl    601  UNL601     -0.1257
   4802 C          26.4822   11.9494    0.4940 C.3   601  UNL601      0.0198
   4803 C          25.3176   12.9172    0.4940 C.3   601  UNL601     -0.0517
   4804 H          26.4576   11.3123   -0.3946 H     601  UNL601      0.0427
   4805 H          26.4576   11.3123    1.3825 H     601  UNL601      0.0427
   4806 H          24.3708   12.3679    0.4940 H     601  UNL601      0.0241
   4807 H          25.3349   13.5584    1.3814 H     601  UNL601      0.0241
   4808 H          25.3349   13.5584   -0.3934 H     601  UNL601      0.0241
   4809 CL         25.7333   11.1945    5.0263 Cl    602  UNL602     -0.1257
   4810 C          25.2450   12.5896    4.0403 C.3   602  UNL602      0.0198
   4811 C          26.2773   12.8694    2.9686 C.3   602  UNL602     -0.0517
   4812 H          24.2728   12.3633    3.5934 H     602  UNL602      0.0427
   4813 H          25.1327   13.4503    4.7056 H     602  UNL602      0.0427
   4814 H          25.9706   13.7296    2.3650 H     602  UNL602      0.0241
   4815 H          27.2537   13.0977    3.4085 H     602  UNL602      0.0241
   4816 H          26.3949   12.0121    2.2977 H     602  UNL602      0.0241
   4817 CL         28.0247   12.8311    6.7949 Cl    603  UNL603     -0.1257
   4818 C          26.4822   11.9494    6.7949 C.3   603  UNL603      0.0198
   4819 C          25.3176   12.9172    6.7949 C.3   603  UNL603     -0.0517
   4820 H          26.4576   11.3123    5.9063 H     603  UNL603      0.0427
   4821 H          26.4576   11.3123    7.6834 H     603  UNL603      0.0427
   4822 H          24.3708   12.3679    6.7949 H     603  UNL603      0.0241
   4823 H          25.3349   13.5584    7.6823 H     603  UNL603      0.0241
   4824 H          25.3349   13.5584    5.9075 H     603  UNL603      0.0241
   4825 CL         27.6385   13.7001    9.9140 Cl    604  UNL604     -0.1257
   4826 C          26.5901   12.2657    9.9140 C.3   604  UNL604      0.0198
   4827 C          25.1321   12.6740    9.9140 C.3   604  UNL604     -0.0517
   4828 H          26.8277   11.6740    9.0254 H     604  UNL604      0.0427
   4829 H          26.8277   11.6740   10.8025 H     604  UNL604      0.0427
   4830 H          24.4918   11.7861    9.9140 H     604  UNL604      0.0241
   4831 H          24.8862   13.2664   10.8014 H     604  UNL604      0.0241
   4832 H          24.8862   13.2664    9.0266 H     604  UNL604      0.0241
   4833 CL         27.4622   13.2686   13.0957 Cl    605  UNL605     -0.1257
   4834 C          25.9197   12.3869   13.0957 C.3   605  UNL605      0.0198
   4835 C          24.7551   13.3547   13.0957 C.3   605  UNL605     -0.0517
   4836 H          25.8951   11.7498   12.2071 H     605  UNL605      0.0427
   4837 H          25.8951   11.7498   13.9842 H     605  UNL605      0.0427
   4838 H          23.8083   12.8054   13.0957 H     605  UNL605      0.0241
   4839 H          24.7724   13.9959   13.9831 H     605  UNL605      0.0241
   4840 H          24.7724   13.9959   12.2083 H     605  UNL605      0.0241
   4841 CL         24.8415   11.1945   17.4131 Cl    606  UNL606     -0.1257
   4842 C          25.0583   12.5896   16.3344 C.3   606  UNL606      0.0198
   4843 C          26.5305   12.8694   16.1180 C.3   606  UNL606     -0.0517
   4844 H          24.5626   12.3633   15.3862 H     606  UNL606      0.0427
   4845 H          24.5626   13.4503   16.7920 H     606  UNL606      0.0427
   4846 H          26.6571   13.7296   15.4529 H     606  UNL606      0.0241
   4847 H          27.0339   13.0977   17.0633 H     606  UNL606      0.0241
   4848 H          27.0339   12.0121   15.6592 H     606  UNL606      0.0241
   4849 CL         27.4622   13.3194   19.3043 Cl    607  UNL607     -0.1257
   4850 C          25.9197   12.6218   19.8436 C.3   607  UNL607      0.0198
   4851 C          24.7551   13.3875   19.2516 C.3   607  UNL607     -0.0517
   4852 H          25.8951   11.5743   19.5303 H     607  UNL607      0.0427
   4853 H          25.8951   12.6613   20.9362 H     607  UNL607      0.0427
   4854 H          23.8083   12.9529   19.5876 H     607  UNL607      0.0241
   4855 H          24.7724   14.4375   19.5614 H     607  UNL607      0.0241
   4856 H          24.7724   13.3519   18.1574 H     607  UNL607      0.0241
   4857 CL         27.5135   13.7001   22.7033 Cl    608  UNL608     -0.1257
   4858 C          26.4651   12.2657   22.7033 C.3   608  UNL608      0.0198
   4859 C          25.0071   12.6740   22.7033 C.3   608  UNL608     -0.0517
   4860 H          26.7027   11.6740   21.8147 H     608  UNL608      0.0427
   4861 H          26.7027   11.6740   23.5918 H     608  UNL608      0.0427
   4862 H          24.3668   11.7861   22.7033 H     608  UNL608      0.0241
   4863 H          24.7612   13.2664   23.5907 H     608  UNL608      0.0241
   4864 H          24.7612   13.2664   21.8159 H     608  UNL608      0.0241
   4865 CL         27.9622   10.6751   25.9674 Cl    609  UNL609     -0.1257
   4866 C          26.4197    9.8702   25.6076 C.3   609  UNL609      0.0198
   4867 C          25.2551   10.7537   26.0025 C.3   609  UNL609     -0.0517
   4868 H          26.3951    9.6512   24.5364 H     609  UNL609      0.0427
   4869 H          26.3951    8.9260   26.1587 H     609  UNL609      0.0427
   4870 H          24.3083   10.2523   25.7784 H     609  UNL609      0.0241
   4871 H          25.2724   10.9770   27.0744 H     609  UNL609      0.0241
   4872 H          25.2724   11.7012   25.4541 H     609  UNL609      0.0241
   4873 CL         27.7122   12.8936   29.0041 Cl    610  UNL610     -0.1257
   4874 C          26.1697   12.0119   29.0041 C.3   610  UNL610      0.0198
   4875 C          25.0051   12.9797   29.0041 C.3   610  UNL610     -0.0517
   4876 H          26.1451   11.3748   28.1155 H     610  UNL610      0.0427
   4877 H          26.1451   11.3748   29.8926 H     610  UNL610      0.0427
   4878 H          24.0583   12.4304   29.0041 H     610  UNL610      0.0241
   4879 H          25.0224   13.6209   29.8915 H     610  UNL610      0.0241
   4880 H          25.0224   13.6209   28.1167 H     610  UNL610      0.0241
   4881 CL         28.0247   13.0811   32.3108 Cl    611  UNL611     -0.1257
   4882 C          26.4822   12.1994   32.3108 C.3   611  UNL611      0.0198
   4883 C          25.3176   13.1672   32.3108 C.3   611  UNL611     -0.0517
   4884 H          26.4576   11.5623   31.4222 H     611  UNL611      0.0427
   4885 H          26.4576   11.5623   33.1993 H     611  UNL611      0.0427
   4886 H          24.3708   12.6179   32.3108 H     611  UNL611      0.0241
   4887 H          25.3349   13.8084   33.1982 H     611  UNL611      0.0241
   4888 H          25.3349   13.8084   31.4234 H     611  UNL611      0.0241
   4889 CL         25.0290   11.3195   34.2318 Cl    612  UNL612     -0.1257
   4890 C          25.2458   12.7146   35.3105 C.3   612  UNL612      0.0198
   4891 C          26.7180   12.9944   35.5268 C.3   612  UNL612     -0.0517
   4892 H          24.7501   13.5753   34.8528 H     612  UNL612      0.0427
   4893 H          24.7501   12.4883   36.2586 H     612  UNL612      0.0427
   4894 H          26.8446   13.8546   36.1920 H     612  UNL612      0.0241
   4895 H          27.2214   12.1371   35.9857 H     612  UNL612      0.0241
   4896 H          27.2214   13.2227   34.5816 H     612  UNL612      0.0241
   4897 CL         27.6399   17.2669    2.2689 Cl    613  UNL613     -0.1257
   4898 C          26.9385   15.7668    1.6250 C.3   613  UNL613      0.0198
   4899 C          25.5666   16.0305    1.0408 C.3   613  UNL613     -0.0517
   4900 H          27.6174   15.3774    0.8612 H     613  UNL613      0.0427
   4901 H          26.8796   15.0434    2.4431 H     613  UNL613      0.0427
   4902 H          25.1401   15.1028    0.6461 H     613  UNL613      0.0241
   4903 H          24.8806   16.4202    1.8000 H     613  UNL613      0.0241
   4904 H          25.6174   16.7537    0.2202 H     613  UNL613      0.0241
   4905 CL         27.8372   16.5754    5.0449 Cl    614  UNL614     -0.1257
   4906 C          26.2947   15.6937    5.0449 C.3   614  UNL614      0.0198
   4907 C          25.1301   16.6615    5.0449 C.3   614  UNL614     -0.0517
   4908 H          26.2701   15.0566    4.1563 H     614  UNL614      0.0427
   4909 H          26.2701   15.0566    5.9334 H     614  UNL614      0.0427
   4910 H          24.1833   16.1122    5.0449 H     614  UNL614      0.0241
   4911 H          25.1474   17.3027    5.9323 H     614  UNL614      0.0241
   4912 H          25.1474   17.3027    4.1575 H     614  UNL614      0.0241
   4913 CL         27.1673   16.9793    6.7994 Cl    615  UNL615     -0.1257
   4914 C          26.8896   15.8828    8.1696 C.3   615  UNL615      0.0198
   4915 C          25.4060   15.7035    8.4136 C.3   615  UNL615     -0.0517
   4916 H          27.3633   14.9250    7.9368 H     615  UNL615      0.0427
   4917 H          27.3787   16.3109    9.0490 H     615  UNL615      0.0427
   4918 H          25.2418   15.0272    9.2586 H     615  UNL615      0.0241
   4919 H          24.9244   16.6585    8.6481 H     615  UNL615      0.0241
   4920 H          24.9091   15.2743    7.5373 H     615  UNL615      0.0241
   4921 CL         24.5591   18.2153   11.3241 Cl    616  UNL616     -0.1257
   4922 C          23.7150   16.8552   10.5530 C.3   616  UNL616      0.0198
   4923 C          24.5237   15.5824   10.6898 C.3   616  UNL616     -0.0517
   4924 H          22.7383   16.7482   11.0333 H     616  UNL616      0.0427
   4925 H          23.5617   17.1065    9.4998 H     616  UNL616      0.0427
   4926 H          23.9984   14.7488   10.2130 H     616  UNL616      0.0241
   4927 H          25.5032   15.6815   10.2106 H     616  UNL616      0.0241
   4928 H          24.6808   15.3237   11.7421 H     616  UNL616      0.0241
   4929 CL         23.9086   15.4100   12.9913 Cl    617  UNL617     -0.1257
   4930 C          25.4649   16.1800   13.3676 C.3   617  UNL617      0.0198
   4931 C          26.2522   15.3348   14.3467 C.3   617  UNL617     -0.0517
   4932 H          26.0157   16.3035   12.4309 H     617  UNL617      0.0427
   4933 H          25.2596   17.1692   13.7862 H     617  UNL617      0.0427
   4934 H          27.2095   15.8145   14.5743 H     617  UNL617      0.0241
   4935 H          25.7073   15.2072   15.2879 H     617  UNL617      0.0241
   4936 H          26.4624   14.3425   13.9343 H     617  UNL617      0.0241
   4937 CL         27.8372   16.5012   17.9889 Cl    618  UNL618     -0.1257
   4938 C          26.2947   15.8037   17.4495 C.3   618  UNL618      0.0198
   4939 C          25.1301   16.5693   18.0415 C.3   618  UNL618     -0.0517
   4940 H          26.2701   15.8432   16.3569 H     618  UNL618      0.0427
   4941 H          26.2701   14.7562   17.7627 H     618  UNL618      0.0427
   4942 H          24.1833   16.1348   17.7055 H     618  UNL618      0.0241
   4943 H          25.1474   16.5338   19.1358 H     618  UNL618      0.0241
   4944 H          25.1474   17.6194   17.7317 H     618  UNL618      0.0241
   4945 CL         27.3521   17.1193   19.1980 Cl    619  UNL619     -0.1257
   4946 C          26.9260   15.6753   20.1415 C.3   619  UNL619      0.0198
   4947 C          25.6052   15.8775   20.8538 C.3   619  UNL619     -0.0517
   4948 H          26.8703   14.8269   19.4536 H     619  UNL619      0.0427
   4949 H          27.7303   15.4918   20.8595 H     619  UNL619      0.0427
   4950 H          25.3486   14.9847   21.4330 H     619  UNL619      0.0241
   4951 H          25.6533   16.7251   21.5453 H     619  UNL619      0.0241
   4952 H          24.7944   16.0611   20.1412 H     619  UNL619      0.0241
   4953 CL         27.2756   16.3762   25.8121 Cl    620  UNL620     -0.1257
   4954 C          26.3852   15.6787   24.4419 C.3   620  UNL620      0.0198
   4955 C          25.1018   16.4443   24.1979 C.3   620  UNL620     -0.0517
   4956 H          27.0341   15.7182   23.5624 H     620  UNL620      0.0427
   4957 H          26.1741   14.6312   24.6746 H     620  UNL620      0.0427
   4958 H          24.5583   16.0098   23.3529 H     620  UNL620      0.0241
   4959 H          24.4462   16.4088   25.0742 H     620  UNL620      0.0241
   4960 H          25.3050   17.4944   23.9634 H     620  UNL620      0.0241
   4961 CL         25.9193   14.8465   26.6716 Cl    621  UNL621     -0.1257
   4962 C          24.2067   15.1532   27.0315 C.3   621  UNL621      0.0198
   4963 C          23.8259   16.5645   26.6365 C.3   621  UNL621     -0.0517
   4964 H          23.6096   14.4213   26.4802 H     621  UNL621      0.0427
   4965 H          24.0533   14.9950   28.1026 H     621  UNL621      0.0427
   4966 H          22.7701   16.7470   26.8607 H     621  UNL621      0.0241
   4967 H          24.4192   17.3035   27.1850 H     621  UNL621      0.0241
   4968 H          23.9761   16.7305   25.5647 H     621  UNL621      0.0241
   4969 CL         25.6153   18.0440   29.2485 Cl    622  UNL622     -0.1257
   4970 C          25.1010   16.5184   30.0000 C.3   622  UNL622      0.0198
   4971 C          26.2936   15.7778   30.5673 C.3   622  UNL622     -0.0517
   4972 H          24.3808   16.7562   30.7880 H     622  UNL622      0.0427
   4973 H          24.5987   15.9184   29.2361 H     622  UNL622      0.0427
   4974 H          25.9701   14.8392   31.0286 H     622  UNL622      0.0241
   4975 H          27.0192   15.5354   29.7839 H     622  UNL622      0.0241
   4976 H          26.8015   16.3722   31.3339 H     622  UNL622      0.0241
   4977 CL         26.8448   17.0190   35.7867 Cl    623  UNL623     -0.1257
   4978 C          26.0061   15.7444   34.8764 C.3   623  UNL623      0.0198
   4979 C          25.9841   16.0743   33.3988 C.3   623  UNL623     -0.0517
   4980 H          26.5298   14.8012   35.0559 H     623  UNL623      0.0427
   4981 H          24.9896   15.6611   35.2709 H     623  UNL623      0.0427
   4982 H          25.4663   15.2855   32.8439 H     623  UNL623      0.0241
   4983 H          25.4606   17.0175   33.2109 H     623  UNL623      0.0241
   4984 H          26.9989   16.1586   32.9962 H     623  UNL623      0.0241
   4985 CL         27.7635   20.8138    0.4940 Cl    624  UNL624     -0.1257
   4986 C          26.7151   19.3794    0.4940 C.3   624  UNL624      0.0198
   4987 C          25.2571   19.7877    0.4940 C.3   624  UNL624     -0.0517
   4988 H          26.9527   18.7878   -0.3946 H     624  UNL624      0.0427
   4989 H          26.9527   18.7878    1.3825 H     624  UNL624      0.0427
   4990 H          24.6168   18.8998    0.4940 H     624  UNL624      0.0241
   4991 H          25.0112   20.3802    1.3814 H     624  UNL624      0.0241
   4992 H          25.0112   20.3802   -0.3934 H     624  UNL624      0.0241
   4993 CL         27.9622   20.0698    3.6757 Cl    625  UNL625     -0.1257
   4994 C          26.4197   19.1881    3.6757 C.3   625  UNL625      0.0198
   4995 C          25.2551   20.1559    3.6757 C.3   625  UNL625     -0.0517
   4996 H          26.3951   18.5510    2.7871 H     625  UNL625      0.0427
   4997 H          26.3951   18.5510    4.5642 H     625  UNL625      0.0427
   4998 H          24.3083   19.6066    3.6757 H     625  UNL625      0.0241
   4999 H          25.2724   20.7971    4.5631 H     625  UNL625      0.0241
   5000 H          25.2724   20.7971    2.7883 H     625  UNL625      0.0241
   5001 CL         24.4689   18.4333    7.1787 Cl    626  UNL626     -0.1257
   5002 C          25.3002   19.8284    6.4579 C.3   626  UNL626      0.0198
   5003 C          26.5973   20.1082    7.1873 C.3   626  UNL626     -0.0517
   5004 H          25.4881   19.6020    5.4045 H     626  UNL626      0.0427
   5005 H          24.6281   20.6891    6.5167 H     626  UNL626      0.0427
   5006 H          27.1043   20.9684    6.7386 H     626  UNL626      0.0241
   5007 H          26.4173   20.3365    8.2429 H     626  UNL626      0.0241
   5008 H          27.2761   19.2509    7.1322 H     626  UNL626      0.0241
   5009 CL         27.2366   21.2547    9.5718 Cl    627  UNL627     -0.1257
   5010 C          26.4430   19.7593   10.1111 C.3   627  UNL627      0.0198
   5011 C          25.0534   19.6527    9.5191 C.3   627  UNL627     -0.0517
   5012 H          27.0643   18.9156    9.7978 H     627  UNL627      0.0427
   5013 H          26.3993   19.7755   11.2037 H     627  UNL627      0.0427
   5014 H          24.5701   18.7297    9.8551 H     627  UNL627      0.0241
   5015 H          24.4248   20.4940    9.8289 H     627  UNL627      0.0241
   5016 H          25.0888   19.6352    8.4249 H     627  UNL627      0.0241
   5017 CL         27.7635   19.8820   12.1589 Cl    628  UNL628     -0.1257
   5018 C          26.7151   19.5210   13.5471 C.3   628  UNL628      0.0198
   5019 C          25.2571   19.6237   13.1519 C.3   628  UNL628     -0.0517
   5020 H          26.9527   18.5121   13.8961 H     628  UNL628      0.0427
   5021 H          26.9527   20.2320   14.3433 H     628  UNL628      0.0427
   5022 H          24.6168   19.4003   14.0112 H     628  UNL628      0.0241
   5023 H          25.0112   20.6317   12.8019 H     628  UNL628      0.0241
   5024 H          25.0112   18.9140   12.3552 H     628  UNL628      0.0241
   5025 CL         28.0247   19.9448   16.2774 Cl    629  UNL629     -0.1257
   5026 C          26.4822   19.0631   16.2774 C.3   629  UNL629      0.0198
   5027 C          25.3176   20.0309   16.2774 C.3   629  UNL629     -0.0517
   5028 H          26.4576   18.4260   15.3888 H     629  UNL629      0.0427
   5029 H          26.4576   18.4260   17.1659 H     629  UNL629      0.0427
   5030 H          24.3708   19.4816   16.2774 H     629  UNL629      0.0241
   5031 H          25.3349   20.6721   17.1648 H     629  UNL629      0.0241
   5032 H          25.3349   20.6721   15.3900 H     629  UNL629      0.0241
   5033 CL         27.7635   20.8138   19.4591 Cl    630  UNL630     -0.1257
   5034 C          26.7151   19.3794   19.4591 C.3   630  UNL630      0.0198
   5035 C          25.2571   19.7877   19.4591 C.3   630  UNL630     -0.0517
   5036 H          26.9527   18.7878   18.5705 H     630  UNL630      0.0427
   5037 H          26.9527   18.7878   20.3476 H     630  UNL630      0.0427
   5038 H          24.6168   18.8998   19.4591 H     630  UNL630      0.0241
   5039 H          25.0112   20.3802   20.3465 H     630  UNL630      0.0241
   5040 H          25.0112   20.3802   18.5717 H     630  UNL630      0.0241
   5041 CL         28.0872   20.1323   22.7658 Cl    631  UNL631     -0.1257
   5042 C          26.5447   19.2506   22.7658 C.3   631  UNL631      0.0198
   5043 C          25.3801   20.2184   22.7658 C.3   631  UNL631     -0.0517
   5044 H          26.5201   18.6135   21.8772 H     631  UNL631      0.0427
   5045 H          26.5201   18.6135   23.6543 H     631  UNL631      0.0427
   5046 H          24.4333   19.6691   22.7658 H     631  UNL631      0.0241
   5047 H          25.3974   20.8596   23.6532 H     631  UNL631      0.0241
   5048 H          25.3974   20.8596   21.8784 H     631  UNL631      0.0241
   5049 CL         23.9595   19.6046   25.8849 Cl    632  UNL632     -0.1257
   5050 C          25.5739   20.3465   25.8849 C.3   632  UNL632      0.0198
   5051 C          26.6483   19.2796   25.8849 C.3   632  UNL632     -0.0517
   5052 H          25.6547   20.9790   24.9963 H     632  UNL632      0.0427
   5053 H          25.6547   20.9790   26.7734 H     632  UNL632      0.0427
   5054 H          27.6401   19.7431   25.8849 H     632  UNL632      0.0241
   5055 H          26.5744   18.6425   26.7723 H     632  UNL632      0.0241
   5056 H          26.5744   18.6425   24.9975 H     632  UNL632      0.0241
   5057 CL         27.7122   20.0073   28.9416 Cl    633  UNL633     -0.1257
   5058 C          26.1697   19.1256   28.9416 C.3   633  UNL633      0.0198
   5059 C          25.0051   20.0934   28.9416 C.3   633  UNL633     -0.0517
   5060 H          26.1451   18.4885   28.0530 H     633  UNL633      0.0427
   5061 H          26.1451   18.4885   29.8301 H     633  UNL633      0.0427
   5062 H          24.0583   19.5441   28.9416 H     633  UNL633      0.0241
   5063 H          25.0224   20.7346   29.8290 H     633  UNL633      0.0241
   5064 H          25.0224   20.7346   28.0542 H     633  UNL633      0.0241
   5065 CL         23.9689   18.0583   31.9895 Cl    634  UNL634     -0.1257
   5066 C          24.8002   19.4533   32.7102 C.3   634  UNL634      0.0198
   5067 C          26.0973   19.7332   31.9809 C.3   634  UNL634     -0.0517
   5068 H          24.1281   20.3141   32.6514 H     634  UNL634      0.0427
   5069 H          24.9880   19.2271   33.7636 H     634  UNL634      0.0427
   5070 H          26.6043   20.5934   32.4296 H     634  UNL634      0.0241
   5071 H          26.7761   18.8759   32.0360 H     634  UNL634      0.0241
   5072 H          25.9173   19.9615   30.9252 H     634  UNL634      0.0241
   5073 CL         27.8372   20.1323   35.4925 Cl    635  UNL635     -0.1257
   5074 C          26.2947   19.2506   35.4925 C.3   635  UNL635      0.0198
   5075 C          25.1301   20.2184   35.4925 C.3   635  UNL635     -0.0517
   5076 H          26.2701   18.6135   34.6039 H     635  UNL635      0.0427
   5077 H          26.2701   18.6135   36.3810 H     635  UNL635      0.0427
   5078 H          24.1833   19.6691   35.4925 H     635  UNL635      0.0241
   5079 H          25.1474   20.8596   36.3799 H     635  UNL635      0.0241
   5080 H          25.1474   20.8596   34.6051 H     635  UNL635      0.0241
   5081 CL         27.8372   23.8142    2.1132 Cl    636  UNL636     -0.1257
   5082 C          26.2947   22.9325    2.1132 C.3   636  UNL636      0.0198
   5083 C          25.1301   23.9003    2.1132 C.3   636  UNL636     -0.0517
   5084 H          26.2701   22.2954    1.2246 H     636  UNL636      0.0427
   5085 H          26.2701   22.2954    3.0017 H     636  UNL636      0.0427
   5086 H          24.1833   23.3510    2.1132 H     636  UNL636      0.0241
   5087 H          25.1474   24.5415    3.0006 H     636  UNL636      0.0241
   5088 H          25.1474   24.5415    1.2258 H     636  UNL636      0.0241
   5089 CL         28.0247   23.5017    5.0449 Cl    637  UNL637     -0.1257
   5090 C          26.4822   22.6200    5.0449 C.3   637  UNL637      0.0198
   5091 C          25.3176   23.5878    5.0449 C.3   637  UNL637     -0.0517
   5092 H          26.4576   21.9829    4.1563 H     637  UNL637      0.0427
   5093 H          26.4576   21.9829    5.9334 H     637  UNL637      0.0427
   5094 H          24.3708   23.0385    5.0449 H     637  UNL637      0.0241
   5095 H          25.3349   24.2290    5.9323 H     637  UNL637      0.0241
   5096 H          25.3349   24.2290    4.1575 H     637  UNL637      0.0241
   5097 CL         24.5698   25.0165    7.6919 Cl    638  UNL638     -0.1257
   5098 C          23.6709   23.6565    8.3983 C.3   638  UNL638      0.0198
   5099 C          23.9383   22.3837    7.6230 C.3   638  UNL638     -0.0517
   5100 H          23.9846   23.5495    9.4405 H     638  UNL638      0.0427
   5101 H          22.6067   23.9078    8.3770 H     638  UNL638      0.0427
   5102 H          23.3818   21.5500    8.0630 H     638  UNL638      0.0241
   5103 H          23.6260   22.4828    6.5782 H     638  UNL638      0.0241
   5104 H          25.0021   22.1249    7.6403 H     638  UNL638      0.0241
   5105 CL         27.7122   22.5237   11.0813 Cl    639  UNL639     -0.1257
   5106 C          26.1697   23.2937   10.6517 C.3   639  UNL639      0.0198
   5107 C          25.0051   22.4485   11.1232 C.3   639  UNL639     -0.0517
   5108 H          26.1451   24.2830   11.1174 H     639  UNL639      0.0427
   5109 H          26.1451   23.4173    9.5654 H     639  UNL639      0.0427
   5110 H          24.0583   22.9283   10.8556 H     639  UNL639      0.0241
   5111 H          25.0224   21.4563   10.6606 H     639  UNL639      0.0241
   5112 H          25.0224   22.3209   12.2106 H     639  UNL639      0.0241
   5113 CL         27.9622   23.4392   13.3399 Cl    640  UNL640     -0.1257
   5114 C          26.4197   22.5575   13.3399 C.3   640  UNL640      0.0198
   5115 C          25.2551   23.5253   13.3399 C.3   640  UNL640     -0.0517
   5116 H          26.3951   21.9204   12.4513 H     640  UNL640      0.0427
   5117 H          26.3951   21.9204   14.2284 H     640  UNL640      0.0427
   5118 H          24.3083   22.9760   13.3399 H     640  UNL640      0.0241
   5119 H          25.2724   24.1665   14.2273 H     640  UNL640      0.0241
   5120 H          25.2724   24.1665   12.4525 H     640  UNL640      0.0241
   5121 CL         27.4866   23.2456   18.7563 Cl    641  UNL641     -0.1257
   5122 C          26.6930   23.3912   17.1733 C.3   641  UNL641      0.0198
   5123 C          25.3034   22.7914   17.2191 C.3   641  UNL641     -0.0517
   5124 H          26.6493   24.4527   16.9140 H     641  UNL641      0.0427
   5125 H          27.3142   22.8757   16.4356 H     641  UNL641      0.0427
   5126 H          24.8201   22.8843   16.2413 H     641  UNL641      0.0241
   5127 H          25.3388   21.7280   17.4776 H     641  UNL641      0.0241
   5128 H          24.6748   23.3030   17.9554 H     641  UNL641      0.0241
   5129 CL         27.8372   23.6267   20.7033 Cl    642  UNL642     -0.1257
   5130 C          26.2947   22.7450   20.7033 C.3   642  UNL642      0.0198
   5131 C          25.1301   23.7128   20.7033 C.3   642  UNL642     -0.0517
   5132 H          26.2701   22.1079   19.8147 H     642  UNL642      0.0427
   5133 H          26.2701   22.1079   21.5918 H     642  UNL642      0.0427
   5134 H          24.1833   23.1635   20.7033 H     642  UNL642      0.0241
   5135 H          25.1474   24.3540   21.5907 H     642  UNL642      0.0241
   5136 H          25.1474   24.3540   19.8159 H     642  UNL642      0.0241
   5137 CL         27.8372   23.8142   24.1349 Cl    643  UNL643     -0.1257
   5138 C          26.2947   22.9325   24.1349 C.3   643  UNL643      0.0198
   5139 C          25.1301   23.9003   24.1349 C.3   643  UNL643     -0.0517
   5140 H          26.2701   22.2954   23.2463 H     643  UNL643      0.0427
   5141 H          26.2701   22.2954   25.0234 H     643  UNL643      0.0427
   5142 H          24.1833   23.3510   24.1349 H     643  UNL643      0.0241
   5143 H          25.1474   24.5415   25.0223 H     643  UNL643      0.0241
   5144 H          25.1474   24.5415   23.2475 H     643  UNL643      0.0241
   5145 CL         26.6497   23.1214   27.2820 Cl    644  UNL644     -0.1257
   5146 C          25.1072   23.6490   27.9884 C.3   644  UNL644      0.0198
   5147 C          23.9426   23.0699   27.2130 C.3   644  UNL644     -0.0517
   5148 H          25.0826   23.3184   29.0306 H     644  UNL644      0.0427
   5149 H          25.0826   24.7422   27.9671 H     644  UNL644      0.0427
   5150 H          22.9958   23.3986   27.6531 H     644  UNL644      0.0241
   5151 H          23.9599   23.3971   26.1683 H     644  UNL644      0.0241
   5152 H          23.9599   21.9752   27.2304 H     644  UNL644      0.0241
   5153 CL         27.5008   22.2347   30.9983 Cl    645  UNL645     -0.1257
   5154 C          25.7412   22.4807   30.9983 C.3   645  UNL645      0.0198
   5155 C          25.4119   23.9587   30.9983 C.3   645  UNL645     -0.0517
   5156 H          25.3320   21.9918   30.1097 H     645  UNL645      0.0427
   5157 H          25.3320   21.9918   31.8868 H     645  UNL645      0.0427
   5158 H          24.3268   24.1033   30.9983 H     645  UNL645      0.0241
   5159 H          25.8178   24.4554   31.8857 H     645  UNL645      0.0241
   5160 H          25.8178   24.4554   30.1109 H     645  UNL645      0.0241
   5161 CL         26.6497   22.8714   33.3954 Cl    646  UNL646     -0.1257
   5162 C          25.1072   23.3990   34.1018 C.3   646  UNL646      0.0198
   5163 C          23.9426   22.8199   33.3264 C.3   646  UNL646     -0.0517
   5164 H          25.0826   23.0684   35.1440 H     646  UNL646      0.0427
   5165 H          25.0826   24.4922   34.0804 H     646  UNL646      0.0427
   5166 H          22.9958   23.1486   33.7665 H     646  UNL646      0.0241
   5167 H          23.9599   23.1471   32.2816 H     646  UNL646      0.0241
   5168 H          23.9599   21.7252   33.3438 H     646  UNL646      0.0241
   5169 CL         26.6497   26.6783    0.7161 Cl    647  UNL647     -0.1257
   5170 C          25.1072   27.2059    0.0097 C.3   647  UNL647      0.0198
   5171 C          23.9426   26.6267    0.7851 C.3   647  UNL647     -0.0517
   5172 H          25.0826   28.2991    0.0311 H     647  UNL647      0.0427
   5173 H          25.0826   26.8754   -1.0324 H     647  UNL647      0.0427
   5174 H          22.9958   26.9555    0.3450 H     647  UNL647      0.0241
   5175 H          23.9599   25.5321    0.7677 H     647  UNL647      0.0241
   5176 H          23.9599   26.9539    1.8298 H     647  UNL647      0.0241
   5177 CL         28.0247   27.1836    3.6132 Cl    648  UNL648     -0.1257
   5178 C          26.4822   26.3019    3.6132 C.3   648  UNL648      0.0198
   5179 C          25.3176   27.2697    3.6132 C.3   648  UNL648     -0.0517
   5180 H          26.4576   25.6648    2.7246 H     648  UNL648      0.0427
   5181 H          26.4576   25.6648    4.5017 H     648  UNL648      0.0427
   5182 H          24.3708   26.7204    3.6132 H     648  UNL648      0.0241
   5183 H          25.3349   27.9109    4.5006 H     648  UNL648      0.0241
   5184 H          25.3349   27.9109    2.7258 H     648  UNL648      0.0241
   5185 CL         25.8996   27.8222    7.6375 Cl    649  UNL649     -0.1257
   5186 C          24.2696   27.2289    7.2528 C.3   649  UNL649      0.0198
   5187 C          24.2703   26.4973    5.9271 C.3   649  UNL649     -0.0517
   5188 H          23.9522   26.5655    8.0622 H     649  UNL649      0.0427
   5189 H          23.5959   28.0897    7.2208 H     649  UNL649      0.0427
   5190 H          23.2637   26.1345    5.6960 H     649  UNL649      0.0241
   5191 H          24.5866   27.1554    5.1111 H     649  UNL649      0.0241
   5192 H          24.9423   25.6332    5.9514 H     649  UNL649      0.0241
   5193 CL         25.0290   25.0342    9.9765 Cl    650  UNL650     -0.1257
   5194 C          25.2458   26.7976    9.9765 C.3   650  UNL650      0.0198
   5195 C          26.7180   27.1514    9.9765 C.3   650  UNL650     -0.0517
   5196 H          24.7501   27.1986    9.0879 H     650  UNL650      0.0427
   5197 H          24.7501   27.1986   10.8650 H     650  UNL650      0.0427
   5198 H          26.8446   28.2387    9.9765 H     650  UNL650      0.0241
   5199 H          27.2214   26.7538   10.8639 H     650  UNL650      0.0241
   5200 H          27.2214   26.7538    9.0891 H     650  UNL650      0.0241
   5201 CL         26.9496   27.5889   14.2314 Cl    651  UNL651     -0.1257
   5202 C          26.0806   26.4762   13.1527 C.3   651  UNL651      0.0198
   5203 C          24.6586   26.9490   12.9363 C.3   651  UNL651     -0.0517
   5204 H          26.6238   26.4323   12.2045 H     651  UNL651      0.0427
   5205 H          26.0942   25.4830   13.6104 H     651  UNL651      0.0427
   5206 H          24.1289   26.2595   12.2712 H     651  UNL651      0.0241
   5207 H          24.1078   26.9949   13.8816 H     651  UNL651      0.0241
   5208 H          24.6367   27.9430   12.4775 H     651  UNL651      0.0241
   5209 CL         25.0386   25.1592   15.8253 Cl    652  UNL652     -0.1257
   5210 C          25.2101   26.9226   15.9578 C.3   652  UNL652      0.0198
   5211 C          26.3748   27.2764   16.8584 C.3   652  UNL652     -0.0517
   5212 H          25.3615   27.3236   14.9517 H     652  UNL652      0.0427
   5213 H          24.2744   27.3236   16.3575 H     652  UNL652      0.0427
   5214 H          26.4749   28.3637   16.9358 H     652  UNL652      0.0241
   5215 H          26.2302   26.8788   17.8683 H     652  UNL652      0.0241
   5216 H          27.3158   26.8788   16.4643 H     652  UNL652      0.0241
   5217 CL         26.6497   26.5533   19.9937 Cl    653  UNL653     -0.1257
   5218 C          25.1072   27.0809   19.2873 C.3   653  UNL653      0.0198
   5219 C          23.9426   26.5017   20.0626 C.3   653  UNL653     -0.0517
   5220 H          25.0826   28.1741   19.3087 H     653  UNL653      0.0427
   5221 H          25.0826   26.7504   18.2451 H     653  UNL653      0.0427
   5222 H          22.9958   26.8305   19.6226 H     653  UNL653      0.0241
   5223 H          23.9599   25.4071   20.0453 H     653  UNL653      0.0241
   5224 H          23.9599   26.8289   21.1074 H     653  UNL653      0.0241
   5225 CL         28.2122   27.1211   22.7033 Cl    654  UNL654     -0.1257
   5226 C          26.6697   26.2394   22.7033 C.3   654  UNL654      0.0198
   5227 C          25.5051   27.2072   22.7033 C.3   654  UNL654     -0.0517
   5228 H          26.6451   25.6023   21.8147 H     654  UNL654      0.0427
   5229 H          26.6451   25.6023   23.5918 H     654  UNL654      0.0427
   5230 H          24.5583   26.6579   22.7033 H     654  UNL654      0.0241
   5231 H          25.5224   27.8484   23.5907 H     654  UNL654      0.0241
   5232 H          25.5224   27.8484   21.8159 H     654  UNL654      0.0241
   5233 CL         26.1497   26.4908   26.1695 Cl    655  UNL655     -0.1257
   5234 C          24.6072   27.0184   25.4631 C.3   655  UNL655      0.0198
   5235 C          23.4426   26.4392   26.2385 C.3   655  UNL655     -0.0517
   5236 H          24.5826   28.1116   25.4845 H     655  UNL655      0.0427
   5237 H          24.5826   26.6879   24.4210 H     655  UNL655      0.0427
   5238 H          22.4958   26.7680   25.7984 H     655  UNL655      0.0241
   5239 H          23.4599   25.3446   26.2211 H     655  UNL655      0.0241
   5240 H          23.4599   26.7664   27.2833 H     655  UNL655      0.0241
   5241 CL         27.6385   26.9333   27.8172 Cl    656  UNL656     -0.1257
   5242 C          26.5901   26.5722   29.2055 C.3   656  UNL656      0.0198
   5243 C          25.1321   26.6750   28.8103 C.3   656  UNL656     -0.0517
   5244 H          26.8277   25.5633   29.5545 H     656  UNL656      0.0427
   5245 H          26.8277   27.2832   30.0017 H     656  UNL656      0.0427
   5246 H          24.4918   26.4515   29.6696 H     656  UNL656      0.0241
   5247 H          24.8862   27.6829   28.4603 H     656  UNL656      0.0241
   5248 H          24.8862   25.9653   28.0136 H     656  UNL656      0.0241
   5249 CL         21.9601   26.6067   33.5879 Cl    657  UNL657     -0.1257
   5250 C          22.9232   27.0018   32.1480 C.3   657  UNL657      0.0198
   5251 C          24.3616   26.5681   32.3363 C.3   657  UNL657     -0.0517
   5252 H          22.4732   26.4928   31.2909 H     657  UNL657      0.0427
   5253 H          22.8611   28.0815   31.9863 H     657  UNL657      0.0427
   5254 H          24.9493   26.8142   31.4462 H     657  UNL657      0.0241
   5255 H          24.8195   27.0741   33.1926 H     657  UNL657      0.0241
   5256 H          24.4321   25.4875   32.4981 H     657  UNL657      0.0241
   5257 CL         27.2537   28.3021   35.6175 Cl    658  UNL658     -0.1257
   5258 C          26.5727   26.6611   35.6175 C.3   658  UNL658      0.0198
   5259 C          25.0595   26.7144   35.6175 C.3   658  UNL658     -0.0517
   5260 H          26.9430   26.1420   34.7289 H     658  UNL658      0.0427
   5261 H          26.9430   26.1420   36.5060 H     658  UNL658      0.0427
   5262 H          24.6464   25.7007   35.6175 H     658  UNL658      0.0241
   5263 H          24.6810   27.2322   36.5049 H     658  UNL658      0.0241
   5264 H          24.6810   27.2322   34.7301 H     658  UNL658      0.0241
   5265 CL         25.8951   29.2095    3.7859 Cl    659  UNL659     -0.1257
   5266 C          24.2427   29.8141    4.0328 C.3   659  UNL659      0.0198
   5267 C          23.7957   30.6379    2.8436 C.3   659  UNL659     -0.0517
   5268 H          23.5857   28.9516    4.1767 H     659  UNL659      0.0427
   5269 H          24.2363   30.4155    4.9462 H     659  UNL659      0.0427
   5270 H          22.7774   31.0071    3.0019 H     659  UNL659      0.0241
   5271 H          24.4485   31.5040    2.6934 H     659  UNL659      0.0241
   5272 H          23.7988   30.0421    1.9249 H     659  UNL659      0.0241
   5273 CL         27.4412   31.8590    6.7949 Cl    660  UNL660     -0.1257
   5274 C          26.7602   30.2180    6.7949 C.3   660  UNL660      0.0198
   5275 C          25.2470   30.2713    6.7949 C.3   660  UNL660     -0.0517
   5276 H          27.1305   29.6989    5.9063 H     660  UNL660      0.0427
   5277 H          27.1305   29.6989    7.6834 H     660  UNL660      0.0427
   5278 H          24.8339   29.2575    6.7949 H     660  UNL660      0.0241
   5279 H          24.8685   30.7891    7.6823 H     660  UNL660      0.0241
   5280 H          24.8685   30.7891    5.9075 H     660  UNL660      0.0241
   5281 CL         27.7122   30.9280    9.9140 Cl    661  UNL661     -0.1257
   5282 C          26.1697   30.0463    9.9140 C.3   661  UNL661      0.0198
   5283 C          25.0051   31.0141    9.9140 C.3   661  UNL661     -0.0517
   5284 H          26.1451   29.4092    9.0254 H     661  UNL661      0.0427
   5285 H          26.1451   29.4092   10.8025 H     661  UNL661      0.0427
   5286 H          24.0583   30.4648    9.9140 H     661  UNL661      0.0241
   5287 H          25.0224   31.6553   10.8014 H     661  UNL661      0.0241
   5288 H          25.0224   31.6553    9.0266 H     661  UNL661      0.0241
   5289 CL         27.4412   30.5844   14.7700 Cl    662  UNL662     -0.1257
   5290 C          26.7602   30.1714   13.1818 C.3   662  UNL662      0.0198
   5291 C          25.2470   30.1848   13.2334 C.3   662  UNL662     -0.0517
   5292 H          27.1305   30.9007   12.4558 H     662  UNL662      0.0427
   5293 H          27.1305   29.1808   12.9031 H     662  UNL662      0.0427
   5294 H          24.8339   29.9296   12.2523 H     662  UNL662      0.0241
   5295 H          24.8685   29.4563   13.9579 H     662  UNL662      0.0241
   5296 H          24.8685   31.1739   13.5112 H     662  UNL662      0.0241
   5297 CL         27.4412   31.7340   16.2774 Cl    663  UNL663     -0.1257
   5298 C          26.7602   30.0930   16.2774 C.3   663  UNL663      0.0198
   5299 C          25.2470   30.1463   16.2774 C.3   663  UNL663     -0.0517
   5300 H          27.1305   29.5739   15.3888 H     663  UNL663      0.0427
   5301 H          27.1305   29.5739   17.1659 H     663  UNL663      0.0427
   5302 H          24.8339   29.1325   16.2774 H     663  UNL663      0.0241
   5303 H          24.8685   30.6641   17.1648 H     663  UNL663      0.0241
   5304 H          24.8685   30.6641   15.3900 H     663  UNL663      0.0241
   5305 CL         27.4085   30.8030   18.2038 Cl    664  UNL664     -0.1257
   5306 C          26.1882   29.9213   19.1473 C.3   664  UNL664      0.0198
   5307 C          25.2670   30.8891   19.8597 C.3   664  UNL664     -0.0517
   5308 H          25.6252   29.2842   18.4594 H     664  UNL664      0.0427
   5309 H          26.7122   29.2842   19.8653 H     664  UNL664      0.0427
   5310 H          24.5179   30.3398   20.4389 H     664  UNL664      0.0241
   5311 H          25.8235   31.5303   20.5511 H     664  UNL664      0.0241
   5312 H          24.7378   31.5303   19.1470 H     664  UNL664      0.0241
   5313 CL         27.0746   31.1458   21.6301 Cl    665  UNL665     -0.1257
   5314 C          26.2057   30.0331   22.7087 C.3   665  UNL665      0.0198
   5315 C          24.7836   30.5059   22.9251 C.3   665  UNL665     -0.0517
   5316 H          26.2192   29.0399   22.2510 H     665  UNL665      0.0427
   5317 H          26.7488   29.9892   23.6569 H     665  UNL665      0.0427
   5318 H          24.2539   29.8164   23.5902 H     665  UNL665      0.0241
   5319 H          24.7617   31.4999   23.3840 H     665  UNL665      0.0241
   5320 H          24.2328   30.5518   21.9799 H     665  UNL665      0.0241
   5321 CL         27.8372   30.6780   25.8849 Cl    666  UNL666     -0.1257
   5322 C          26.2947   29.7963   25.8849 C.3   666  UNL666      0.0198
   5323 C          25.1301   30.7641   25.8849 C.3   666  UNL666     -0.0517
   5324 H          26.2701   29.1592   24.9963 H     666  UNL666      0.0427
   5325 H          26.2701   29.1592   26.7734 H     666  UNL666      0.0427
   5326 H          24.1833   30.2148   25.8849 H     666  UNL666      0.0241
   5327 H          25.1474   31.4053   26.7723 H     666  UNL666      0.0241
   5328 H          25.1474   31.4053   24.9975 H     666  UNL666      0.0241
   5329 CL         27.6912   31.7340   29.0666 Cl    667  UNL667     -0.1257
   5330 C          27.0102   30.0930   29.0666 C.3   667  UNL667      0.0198
   5331 C          25.4970   30.1463   29.0666 C.3   667  UNL667     -0.0517
   5332 H          27.3805   29.5739   28.1780 H     667  UNL667      0.0427
   5333 H          27.3805   29.5739   29.9551 H     667  UNL667      0.0427
   5334 H          25.0839   29.1325   29.0666 H     667  UNL667      0.0241
   5335 H          25.1185   30.6641   29.9540 H     667  UNL667      0.0241
   5336 H          25.1185   30.6641   28.1792 H     667  UNL667      0.0241
   5337 CL         25.0915   29.0414   30.9876 Cl    668  UNL668     -0.1257
   5338 C          25.3083   30.4365   32.0663 C.3   668  UNL668      0.0198
   5339 C          26.7805   30.7163   32.2827 C.3   668  UNL668     -0.0517
   5340 H          24.8126   31.2972   31.6086 H     668  UNL668      0.0427
   5341 H          24.8126   30.2102   33.0145 H     668  UNL668      0.0427
   5342 H          26.9071   31.5765   32.9478 H     668  UNL668      0.0241
   5343 H          27.2839   29.8590   32.7415 H     668  UNL668      0.0241
   5344 H          27.2839   30.9446   31.3374 H     668  UNL668      0.0241
   5345 CL         26.6497   30.4224   35.3050 Cl    669  UNL669     -0.1257
   5346 C          25.1072   29.5545   35.1498 C.3   669  UNL669      0.0198
   5347 C          23.9426   30.5072   35.3202 C.3   669  UNL669     -0.0517
   5348 H          25.0826   29.0838   34.1629 H     669  UNL669      0.0427
   5349 H          25.0826   28.7709   35.9123 H     669  UNL669      0.0427
   5350 H          22.9958   29.9664   35.2235 H     669  UNL669      0.0241
   5351 H          23.9599   30.9821   36.3066 H     669  UNL669      0.0241
   5352 H          23.9599   31.2946   34.5595 H     669  UNL669      0.0241
   5353 CL         26.3510   35.2167    0.9036 Cl    670  UNL670     -0.1257
   5354 C          24.8080   34.6906    0.1972 C.3   670  UNL670      0.0198
   5355 C          24.2410   33.5201    0.9726 C.3   670  UNL670     -0.0517
   5356 H          24.1198   35.5404    0.2186 H     670  UNL670      0.0427
   5357 H          24.9907   34.4140   -0.8449 H     670  UNL670      0.0427
   5358 H          23.2908   33.2009    0.5325 H     670  UNL670      0.0241
   5359 H          24.9243   32.6647    0.9552 H     670  UNL670      0.0241
   5360 H          24.0546   33.7895    2.0173 H     670  UNL670      0.0241
   5361 CL         27.5804   32.9717    3.3959 Cl    671  UNL671     -0.1257
   5362 C          25.9334   33.3634    3.9352 C.3   671  UNL671      0.0198
   5363 C          25.4805   34.6814    3.3432 C.3   671  UNL671     -0.0517
   5364 H          25.2732   32.5497    3.6219 H     671  UNL671      0.0427
   5365 H          25.9381   33.4097    5.0278 H     671  UNL671      0.0427
   5366 H          24.4656   34.9168    3.6792 H     671  UNL671      0.0241
   5367 H          26.1365   35.5015    3.6530 H     671  UNL671      0.0241
   5368 H          25.4725   34.6427    2.2490 H     671  UNL671      0.0241
   5369 CL         26.6497   33.7758    6.8260 Cl    672  UNL672     -0.1257
   5370 C          25.1072   34.6540    6.9039 C.3   672  UNL672      0.0198
   5371 C          23.9426   33.6900    6.8183 C.3   672  UNL672     -0.0517
   5372 H          25.0826   35.2101    7.8453 H     672  UNL672      0.0427
   5373 H          25.0826   35.3671    6.0751 H     672  UNL672      0.0427
   5374 H          22.9958   34.2372    6.8669 H     672  UNL672      0.0241
   5375 H          23.9599   33.1297    5.8778 H     672  UNL672      0.0241
   5376 H          23.9599   32.9729    7.6456 H     672  UNL672      0.0241
   5377 CL         27.1912   35.5409    9.8515 Cl    673  UNL673     -0.1257
   5378 C          26.5102   33.8998    9.8515 C.3   673  UNL673      0.0198
   5379 C          24.9970   33.9532    9.8515 C.3   673  UNL673     -0.0517
   5380 H          26.8805   33.3808    8.9629 H     673  UNL673      0.0427
   5381 H          26.8805   33.3808   10.7400 H     673  UNL673      0.0427
   5382 H          24.5839   32.9394    9.8515 H     673  UNL673      0.0241
   5383 H          24.6185   34.4710   10.7389 H     673  UNL673      0.0241
   5384 H          24.6185   34.4710    8.9641 H     673  UNL673      0.0241
   5385 CL         26.9496   34.8277   11.9600 Cl    674  UNL674     -0.1257
   5386 C          26.0807   33.7149   13.0387 C.3   674  UNL674      0.0198
   5387 C          24.6586   34.1878   13.2551 C.3   674  UNL674     -0.0517
   5388 H          26.0942   32.7218   12.5810 H     674  UNL674      0.0427
   5389 H          26.6238   33.6711   13.9869 H     674  UNL674      0.0427
   5390 H          24.1289   33.4983   13.9202 H     674  UNL674      0.0241
   5391 H          24.6367   35.1817   13.7139 H     674  UNL674      0.0241
   5392 H          24.1078   34.2337   12.3099 H     674  UNL674      0.0241
   5393 CL         25.8935   35.6220   17.2881 Cl    675  UNL675     -0.1257
   5394 C          26.3838   34.2981   16.2094 C.3   675  UNL675      0.0198
   5395 C          25.2344   33.3364   15.9930 C.3   675  UNL675     -0.0517
   5396 H          26.7064   34.7372   15.2612 H     675  UNL675      0.0427
   5397 H          27.2360   33.7879   16.6670 H     675  UNL675      0.0427
   5398 H          25.5429   32.5235   15.3279 H     675  UNL675      0.0241
   5399 H          24.9060   32.8919   16.9383 H     675  UNL675      0.0241
   5400 H          24.3772   33.8399   15.5342 H     675  UNL675      0.0241
   5401 CL         26.3950   33.7295   18.6790 Cl    676  UNL676     -0.1257
   5402 C          24.7427   34.2572   19.0637 C.3   676  UNL676      0.0198
   5403 C          24.2957   33.6780   20.3894 C.3   676  UNL676     -0.0517
   5404 H          24.7363   35.3504   19.0956 H     676  UNL676      0.0427
   5405 H          24.0858   33.9266   18.2543 H     676  UNL676      0.0427
   5406 H          23.2774   34.0067   20.6204 H     676  UNL676      0.0241
   5407 H          24.2988   32.5833   20.3650 H     676  UNL676      0.0241
   5408 H          24.9485   34.0052   21.2053 H     676  UNL676      0.0241
   5409 CL         27.5335   34.3598   21.4480 Cl    677  UNL677     -0.1257
   5410 C          26.3132   33.4781   22.3915 C.3   677  UNL677      0.0198
   5411 C          25.3920   34.4459   23.1038 C.3   677  UNL677     -0.0517
   5412 H          25.7502   32.8410   21.7036 H     677  UNL677      0.0427
   5413 H          26.8372   32.8410   23.1095 H     677  UNL677      0.0427
   5414 H          24.6429   33.8966   23.6830 H     677  UNL677      0.0241
   5415 H          25.9485   35.0871   23.7953 H     677  UNL677      0.0241
   5416 H          24.8628   35.0871   22.3912 H     677  UNL677      0.0241
   5417 CL         27.1912   35.4784   25.9474 Cl    678  UNL678     -0.1257
   5418 C          26.5102   33.8373   25.9474 C.3   678  UNL678      0.0198
   5419 C          24.9970   33.8907   25.9474 C.3   678  UNL678     -0.0517
   5420 H          26.8805   33.3183   25.0588 H     678  UNL678      0.0427
   5421 H          26.8805   33.3183   26.8359 H     678  UNL678      0.0427
   5422 H          24.5839   32.8769   25.9474 H     678  UNL678      0.0241
   5423 H          24.6185   34.4085   26.8348 H     678  UNL678      0.0241
   5424 H          24.6185   34.4085   25.0600 H     678  UNL678      0.0241
   5425 CL         24.7165   32.6608   30.1398 Cl    679  UNL679     -0.1257
   5426 C          24.9333   34.0559   29.0611 C.3   679  UNL679      0.0198
   5427 C          26.4055   34.3357   28.8447 C.3   679  UNL679     -0.0517
   5428 H          24.4376   33.8296   28.1129 H     679  UNL679      0.0427
   5429 H          24.4376   34.9166   29.5188 H     679  UNL679      0.0427
   5430 H          26.5321   35.1959   28.1796 H     679  UNL679      0.0241
   5431 H          26.9089   34.5640   29.7900 H     679  UNL679      0.0241
   5432 H          26.9089   33.4784   28.3859 H     679  UNL679      0.0241
   5433 CL         27.1912   35.5409   32.3108 Cl    680  UNL680     -0.1257
   5434 C          26.5102   33.8998   32.3108 C.3   680  UNL680      0.0198
   5435 C          24.9970   33.9532   32.3108 C.3   680  UNL680     -0.0517
   5436 H          26.8805   33.3808   31.4222 H     680  UNL680      0.0427
   5437 H          26.8805   33.3808   33.1993 H     680  UNL680      0.0427
   5438 H          24.5839   32.9394   32.3108 H     680  UNL680      0.0241
   5439 H          24.6185   34.4710   33.1982 H     680  UNL680      0.0241
   5440 H          24.6185   34.4710   31.4234 H     680  UNL680      0.0241
   5441 CL         25.9545   36.2107   35.3050 Cl    681  UNL681     -0.1257
   5442 C          26.6243   34.5651   35.3050 C.3   681  UNL681      0.0198
   5443 C          25.5109   33.5389   35.3050 C.3   681  UNL681     -0.0517
   5444 H          27.2526   34.4564   34.4164 H     681  UNL681      0.0427
   5445 H          27.2526   34.4564   36.1935 H     681  UNL681      0.0427
   5446 H          25.9301   32.5276   35.3050 H     681  UNL681      0.0241
   5447 H          24.8776   33.6409   36.1924 H     681  UNL681      0.0241
   5448 H          24.8776   33.6409   34.4176 H     681  UNL681      0.0241
   5449 CL         32.7068    3.2790    0.6190 Cl    682  UNL682     -0.1257
   5450 C          32.0258    1.6379    0.6190 C.3   682  UNL682      0.0198
   5451 C          30.5126    1.6912    0.6190 C.3   682  UNL682     -0.0517
   5452 H          32.3961    1.1189   -0.2696 H     682  UNL682      0.0427
   5453 H          32.3961    1.1189    1.5075 H     682  UNL682      0.0427
   5454 H          30.0995    0.6775    0.6190 H     682  UNL682      0.0241
   5455 H          30.1341    2.2091    1.5064 H     682  UNL682      0.0241
   5456 H          30.1341    2.2091   -0.2684 H     682  UNL682      0.0241
   5457 CL         31.1225    1.4664    4.3516 Cl    683  UNL683     -0.1257
   5458 C          29.4098    1.3214    3.9016 C.3   683  UNL683      0.0198
   5459 C          29.0290    2.3988    2.9082 C.3   683  UNL683     -0.0517
   5460 H          29.2564    0.3267    3.4735 H     683  UNL683      0.0427
   5461 H          28.8128    1.4058    4.8139 H     683  UNL683      0.0427
   5462 H          27.9732    2.3039    2.6352 H     683  UNL683      0.0241
   5463 H          29.1793    3.3980    3.3300 H     683  UNL683      0.0241
   5464 H          29.6223    2.3203    1.9913 H     683  UNL683      0.0241
   5465 CL         29.6696    0.1360    6.6699 Cl    684  UNL684     -0.1257
   5466 C          29.8864    1.8995    6.6699 C.3   684  UNL684      0.0198
   5467 C          31.3586    2.2532    6.6699 C.3   684  UNL684     -0.0517
   5468 H          29.3907    2.3005    5.7813 H     684  UNL684      0.0427
   5469 H          29.3907    2.3005    7.5584 H     684  UNL684      0.0427
   5470 H          31.4852    3.3406    6.6699 H     684  UNL684      0.0241
   5471 H          31.8620    1.8556    7.5573 H     684  UNL684      0.0241
   5472 H          31.8620    1.8556    5.7825 H     684  UNL684      0.0241
   5473 CL         30.2946    2.9974    8.3415 Cl    685  UNL685     -0.1257
   5474 C          30.5114    2.1618    9.8944 C.3   685  UNL685      0.0198
   5475 C          31.9836    1.9942   10.2060 C.3   685  UNL685     -0.0517
   5476 H          30.0157    2.7544   10.6686 H     685  UNL685      0.0427
   5477 H          30.0157    1.1894    9.8266 H     685  UNL685      0.0427
   5478 H          32.1102    1.4790   11.1635 H     685  UNL685      0.0241
   5479 H          32.4870    1.4012    9.4354 H     685  UNL685      0.0241
   5480 H          32.4870    2.9641   10.2763 H     685  UNL685      0.0241
   5481 CL         29.6696    1.5254   11.4863 Cl    686  UNL686     -0.1257
   5482 C          29.8864    1.9692   13.1930 C.3   686  UNL686      0.0198
   5483 C          31.3586    2.0583   13.5354 C.3   686  UNL686     -0.0517
   5484 H          29.3907    2.9301   13.3574 H     686  UNL686      0.0427
   5485 H          29.3907    1.2102   13.8047 H     686  UNL686      0.0427
   5486 H          31.4852    2.3319   14.5877 H     686  UNL686      0.0241
   5487 H          31.8620    1.0994   13.3739 H     686  UNL686      0.0241
   5488 H          31.8620    2.8170   12.9272 H     686  UNL686      0.0241
   5489 CL         31.8528    2.0979   16.4024 Cl    687  UNL687     -0.1257
   5490 C          30.3103    1.2162   16.4024 C.3   687  UNL687      0.0198
   5491 C          29.1458    2.1840   16.4024 C.3   687  UNL687     -0.0517
   5492 H          30.2857    0.5791   15.5138 H     687  UNL687      0.0427
   5493 H          30.2857    0.5791   17.2909 H     687  UNL687      0.0427
   5494 H          28.1989    1.6347   16.4024 H     687  UNL687      0.0241
   5495 H          29.1631    2.8252   17.2898 H     687  UNL687      0.0241
   5496 H          29.1631    2.8252   15.5150 H     687  UNL687      0.0241
   5497 CL         32.7693    3.2790   19.3966 Cl    688  UNL688     -0.1257
   5498 C          32.0883    1.6379   19.3966 C.3   688  UNL688      0.0198
   5499 C          30.5751    1.6912   19.3966 C.3   688  UNL688     -0.0517
   5500 H          32.4586    1.1189   18.5080 H     688  UNL688      0.0427
   5501 H          32.4586    1.1189   20.2851 H     688  UNL688      0.0427
   5502 H          30.1620    0.6775   19.3966 H     688  UNL688      0.0241
   5503 H          30.1966    2.2091   20.2840 H     688  UNL688      0.0241
   5504 H          30.1966    2.2091   18.5092 H     688  UNL688      0.0241
   5505 CL         32.8943    3.2790   22.7033 Cl    689  UNL689     -0.1257
   5506 C          32.2133    1.6379   22.7033 C.3   689  UNL689      0.0198
   5507 C          30.7001    1.6912   22.7033 C.3   689  UNL689     -0.0517
   5508 H          32.5836    1.1189   21.8147 H     689  UNL689      0.0427
   5509 H          32.5836    1.1189   23.5918 H     689  UNL689      0.0427
   5510 H          30.2870    0.6775   22.7033 H     689  UNL689      0.0241
   5511 H          30.3216    2.2091   23.5907 H     689  UNL689      0.0241
   5512 H          30.3216    2.2091   21.8159 H     689  UNL689      0.0241
   5513 CL         32.8943    2.1293   27.4967 Cl    690  UNL690     -0.1257
   5514 C          32.2133    1.7163   25.9085 C.3   690  UNL690      0.0198
   5515 C          30.7001    1.7297   25.9601 C.3   690  UNL690     -0.0517
   5516 H          32.5836    2.4457   25.1825 H     690  UNL690      0.0427
   5517 H          32.5836    0.7258   25.6298 H     690  UNL690      0.0427
   5518 H          30.2870    1.4746   24.9790 H     690  UNL690      0.0241
   5519 H          30.3216    1.0012   26.6847 H     690  UNL690      0.0241
   5520 H          30.3216    2.7189   26.2380 H     690  UNL690      0.0241
   5521 CL         29.6696    1.4004   27.3947 Cl    691  UNL691     -0.1257
   5522 C          29.8864    1.8442   29.1014 C.3   691  UNL691      0.0198
   5523 C          31.3586    1.9333   29.4438 C.3   691  UNL691     -0.0517
   5524 H          29.3907    2.8051   29.2658 H     691  UNL691      0.0427
   5525 H          29.3907    1.0852   29.7131 H     691  UNL691      0.0427
   5526 H          31.4852    2.2069   30.4961 H     691  UNL691      0.0241
   5527 H          31.8620    0.9744   29.2823 H     691  UNL691      0.0241
   5528 H          31.8620    2.6920   28.8356 H     691  UNL691      0.0241
   5529 CL         31.3528    0.2112   32.0310 Cl    692  UNL692     -0.1257
   5530 C          29.8103   -0.4863   32.5703 C.3   692  UNL692      0.0198
   5531 C          28.6458    0.2793   31.9783 C.3   692  UNL692     -0.0517
   5532 H          29.7857   -1.5339   32.2571 H     692  UNL692      0.0427
   5533 H          29.7857   -0.4468   33.6629 H     692  UNL692      0.0427
   5534 H          27.6989   -0.1552   32.3143 H     692  UNL692      0.0241
   5535 H          28.6631    1.3294   32.2882 H     692  UNL692      0.0241
   5536 H          28.6631    0.2438   30.8841 H     692  UNL692      0.0241
   5537 CL         29.6696    5.0823   -1.4279 Cl    693  UNL693     -0.1257
   5538 C          29.8864    5.5261    0.2788 C.3   693  UNL693      0.0198
   5539 C          31.3586    5.6151    0.6211 C.3   693  UNL693     -0.0517
   5540 H          29.3907    6.4870    0.4432 H     693  UNL693      0.0427
   5541 H          29.3907    4.7671    0.8905 H     693  UNL693      0.0427
   5542 H          31.4852    5.8888    1.6735 H     693  UNL693      0.0241
   5543 H          31.8620    4.6562    0.4597 H     693  UNL693      0.0241
   5544 H          31.8620    6.3739    0.0130 H     693  UNL693      0.0241
   5545 CL         32.6443    5.6862    5.0375 Cl    694  UNL694     -0.1257
   5546 C          31.9633    5.2732    3.4493 C.3   694  UNL694      0.0198
   5547 C          30.4501    5.2866    3.5009 C.3   694  UNL694     -0.0517
   5548 H          32.3336    6.0025    2.7233 H     694  UNL694      0.0427
   5549 H          32.3336    4.2826    3.1706 H     694  UNL694      0.0427
   5550 H          30.0370    5.0315    2.5198 H     694  UNL694      0.0241
   5551 H          30.0716    4.5581    4.2254 H     694  UNL694      0.0241
   5552 H          30.0716    6.2758    3.7787 H     694  UNL694      0.0241
   5553 CL         33.1653    5.9048    6.8574 Cl    695  UNL695     -0.1257
   5554 C          31.6228    5.0231    6.8574 C.3   695  UNL695      0.0198
   5555 C          30.4583    5.9909    6.8574 C.3   695  UNL695     -0.0517
   5556 H          31.5982    4.3860    5.9688 H     695  UNL695      0.0427
   5557 H          31.5982    4.3860    7.7459 H     695  UNL695      0.0427
   5558 H          29.5114    5.4416    6.8574 H     695  UNL695      0.0241
   5559 H          30.4756    6.6321    7.7448 H     695  UNL695      0.0241
   5560 H          30.4756    6.6321    5.9700 H     695  UNL695      0.0241
   5561 CL         32.6443    5.6862    8.3022 Cl    696  UNL696     -0.1257
   5562 C          31.9633    5.2732    9.8904 C.3   696  UNL696      0.0198
   5563 C          30.4501    5.2866    9.8388 C.3   696  UNL696     -0.0517
   5564 H          32.3336    4.2826   10.1691 H     696  UNL696      0.0427
   5565 H          32.3336    6.0025   10.6164 H     696  UNL696      0.0427
   5566 H          30.0370    5.0315   10.8199 H     696  UNL696      0.0241
   5567 H          30.0716    6.2758    9.5610 H     696  UNL696      0.0241
   5568 H          30.0716    4.5581    9.1143 H     696  UNL696      0.0241
   5569 CL         32.9153    6.0298   13.0332 Cl    697  UNL697     -0.1257
   5570 C          31.3728    5.1481   13.0332 C.3   697  UNL697      0.0198
   5571 C          30.2083    6.1159   13.0332 C.3   697  UNL697     -0.0517
   5572 H          31.3482    4.5110   12.1446 H     697  UNL697      0.0427
   5573 H          31.3482    4.5110   13.9217 H     697  UNL697      0.0427
   5574 H          29.2614    5.5666   13.0332 H     697  UNL697      0.0241
   5575 H          30.2256    6.7571   13.9206 H     697  UNL697      0.0241
   5576 H          30.2256    6.7571   12.1458 H     697  UNL697      0.0241
   5577 CL         30.2946    4.2058   17.2881 Cl    698  UNL698     -0.1257
   5578 C          30.5114    5.6008   16.2094 C.3   698  UNL698      0.0198
   5579 C          31.9836    5.8807   15.9930 C.3   698  UNL698     -0.0517
   5580 H          30.0157    5.3745   15.2612 H     698  UNL698      0.0427
   5581 H          30.0157    6.4615   16.6670 H     698  UNL698      0.0427
   5582 H          32.1102    6.7409   15.3279 H     698  UNL698      0.0241
   5583 H          32.4870    6.1090   16.9383 H     698  UNL698      0.0241
   5584 H          32.4870    5.0233   15.5342 H     698  UNL698      0.0241
   5585 CL         29.6696    4.9573   21.1935 Cl    699  UNL699     -0.1257
   5586 C          29.8864    5.4011   19.4868 C.3   699  UNL699      0.0198
   5587 C          31.3586    5.4901   19.1444 C.3   699  UNL699     -0.0517
   5588 H          29.3907    4.6420   18.8751 H     699  UNL699      0.0427
   5589 H          29.3907    6.3619   19.3223 H     699  UNL699      0.0427
   5590 H          31.4852    5.7638   18.0921 H     699  UNL699      0.0241
   5591 H          31.8620    6.2489   19.7526 H     699  UNL699      0.0241
   5592 H          31.8620    4.5312   19.3059 H     699  UNL699      0.0241
   5593 CL         29.6071    6.2634   24.4731 Cl    700  UNL700     -0.1257
   5594 C          29.8239    5.5706   22.8515 C.3   700  UNL700      0.0198
   5595 C          31.2961    5.4316   22.5262 C.3   700  UNL700     -0.0517
   5596 H          29.3282    4.5959   22.8318 H     700  UNL700      0.0427
   5597 H          29.3282    6.2301   22.1336 H     700  UNL700      0.0427
   5598 H          31.4227    5.0044   21.5262 H     700  UNL700      0.0241
   5599 H          31.7995    6.4038   22.5431 H     700  UNL700      0.0241
   5600 H          31.7995    4.7718   23.2404 H     700  UNL700      0.0241
   5601 CL         30.1696    4.0808   27.1456 Cl    701  UNL701     -0.1257
   5602 C          30.3864    5.4758   26.0670 C.3   701  UNL701      0.0198
   5603 C          31.8586    5.7557   25.8506 C.3   701  UNL701     -0.0517
   5604 H          29.8907    5.2495   25.1187 H     701  UNL701      0.0427
   5605 H          29.8907    6.3365   26.5246 H     701  UNL701      0.0427
   5606 H          31.9852    6.6159   25.1855 H     701  UNL701      0.0241
   5607 H          32.3620    5.9840   26.7958 H     701  UNL701      0.0241
   5608 H          32.3620    4.8983   25.3917 H     701  UNL701      0.0241
   5609 CL         32.7366    5.9048   30.3219 Cl    702  UNL702     -0.1257
   5610 C          31.5163    5.0231   29.3783 C.3   702  UNL702      0.0198
   5611 C          30.5951    5.9909   28.6660 C.3   702  UNL702     -0.0517
   5612 H          32.0404    4.3860   28.6603 H     702  UNL702      0.0427
   5613 H          30.9534    4.3860   30.0662 H     702  UNL702      0.0427
   5614 H          29.8460    5.4416   28.0868 H     702  UNL702      0.0241
   5615 H          30.0659    6.6321   29.3786 H     702  UNL702      0.0241
   5616 H          31.1516    6.6321   27.9746 H     702  UNL702      0.0241
   5617 CL         32.5193    5.0233   32.4358 Cl    703  UNL703     -0.1257
   5618 C          31.8383    3.3823   32.4358 C.3   703  UNL703      0.0198
   5619 C          30.3251    3.4356   32.4358 C.3   703  UNL703     -0.0517
   5620 H          32.2086    2.8632   31.5472 H     703  UNL703      0.0427
   5621 H          32.2086    2.8632   33.3243 H     703  UNL703      0.0427
   5622 H          29.9120    2.4219   32.4358 H     703  UNL703      0.0241
   5623 H          29.9466    3.9535   33.3232 H     703  UNL703      0.0241
   5624 H          29.9466    3.9535   31.5484 H     703  UNL703      0.0241
   5625 CL         33.1653    9.4617    0.6190 Cl    704  UNL704     -0.1257
   5626 C          31.6228    8.5800    0.6190 C.3   704  UNL704      0.0198
   5627 C          30.4583    9.5478    0.6190 C.3   704  UNL704     -0.0517
   5628 H          31.5982    7.9429   -0.2696 H     704  UNL704      0.0427
   5629 H          31.5982    7.9429    1.5075 H     704  UNL704      0.0427
   5630 H          29.5114    8.9985    0.6190 H     704  UNL704      0.0241
   5631 H          30.4756   10.1890    1.5064 H     704  UNL704      0.0241
   5632 H          30.4756   10.1890   -0.2684 H     704  UNL704      0.0241
   5633 CL         29.6696    7.5751    4.6239 Cl    705  UNL705     -0.1257
   5634 C          29.8864    8.9702    3.5452 C.3   705  UNL705      0.0198
   5635 C          31.3586    9.2501    3.3288 C.3   705  UNL705     -0.0517
   5636 H          29.3907    8.7439    2.5969 H     705  UNL705      0.0427
   5637 H          29.3907    9.8309    4.0028 H     705  UNL705      0.0427
   5638 H          31.4852   10.1103    2.6637 H     705  UNL705      0.0241
   5639 H          31.8620    9.4783    4.2740 H     705  UNL705      0.0241
   5640 H          31.8620    8.3927    2.8700 H     705  UNL705      0.0241
   5641 CL         33.1653    9.3992    6.6699 Cl    706  UNL706     -0.1257
   5642 C          31.6228    8.5175    6.6699 C.3   706  UNL706      0.0198
   5643 C          30.4583    9.4853    6.6699 C.3   706  UNL706     -0.0517
   5644 H          31.5982    7.8804    5.7813 H     706  UNL706      0.0427
   5645 H          31.5982    7.8804    7.5584 H     706  UNL706      0.0427
   5646 H          29.5114    8.9360    6.6699 H     706  UNL706      0.0241
   5647 H          30.4756   10.1265    7.5573 H     706  UNL706      0.0241
   5648 H          30.4756   10.1265    5.7825 H     706  UNL706      0.0241
   5649 CL         32.1527    9.8670   11.0497 Cl    707  UNL707     -0.1257
   5650 C          31.2838    8.7543    9.9711 C.3   707  UNL707      0.0198
   5651 C          29.8617    9.2271    9.7547 C.3   707  UNL707     -0.0517
   5652 H          31.8269    8.7104    9.0228 H     707  UNL707      0.0427
   5653 H          31.2973    7.7611   10.4287 H     707  UNL707      0.0427
   5654 H          29.3321    8.5376    9.0896 H     707  UNL707      0.0241
   5655 H          29.3109    9.2730   10.6999 H     707  UNL707      0.0241
   5656 H          29.8398   10.2211    9.2958 H     707  UNL707      0.0241
   5657 CL         33.2903    9.2117   12.9707 Cl    708  UNL708     -0.1257
   5658 C          31.7478    8.3300   12.9707 C.3   708  UNL708      0.0198
   5659 C          30.5833    9.2978   12.9707 C.3   708  UNL708     -0.0517
   5660 H          31.7232    7.6929   12.0821 H     708  UNL708      0.0427
   5661 H          31.7232    7.6929   13.8592 H     708  UNL708      0.0427
   5662 H          29.6364    8.7485   12.9707 H     708  UNL708      0.0241
   5663 H          30.6006    9.9390   13.8581 H     708  UNL708      0.0241
   5664 H          30.6006    9.9390   12.0833 H     708  UNL708      0.0241
   5665 CL         32.6116   10.4029   16.4847 Cl    709  UNL709     -0.1257
   5666 C          31.3913    9.3277   15.7695 C.3   709  UNL709      0.0198
   5667 C          30.4701    8.7836   16.8409 C.3   709  UNL709     -0.0517
   5668 H          30.8283    9.9020   15.0283 H     709  UNL709      0.0427
   5669 H          31.9153    8.5151   15.2586 H     709  UNL709      0.0427
   5670 H          29.7210    8.1222   16.3939 H     709  UNL709      0.0241
   5671 H          31.0266    8.2065   17.5867 H     709  UNL709      0.0241
   5672 H          29.9410    9.5916   17.3567 H     709  UNL709      0.0241
   5673 CL         29.0099    8.4730   18.8458 Cl    710  UNL710     -0.1257
   5674 C          30.2566    9.0736   19.9601 C.3   710  UNL710      0.0198
   5675 C          31.4618    9.5708   19.1900 C.3   710  UNL710     -0.0517
   5676 H          29.8173    9.8787   20.5559 H     710  UNL710      0.0427
   5677 H          30.5343    8.2543   20.6292 H     710  UNL710      0.0427
   5678 H          32.2258    9.9392   19.8820 H     710  UNL710      0.0241
   5679 H          31.9078    8.7699   18.5913 H     710  UNL710      0.0241
   5680 H          31.1918   10.3921   18.5182 H     710  UNL710      0.0241
   5681 CL         31.3797    9.5867   20.7172 Cl    711  UNL711     -0.1257
   5682 C          30.9914    8.7050   22.2100 C.3   711  UNL711      0.0198
   5683 C          30.6983    9.6728   23.3370 C.3   711  UNL711     -0.0517
   5684 H          30.1252    8.0679   22.0102 H     711  UNL711      0.0427
   5685 H          31.8451    8.0679   22.4575 H     711  UNL711      0.0427
   5686 H          30.4600    9.1235   24.2535 H     711  UNL711      0.0241
   5687 H          31.5615   10.3140   23.5437 H     711  UNL711      0.0241
   5688 H          29.8439   10.3140   23.0970 H     711  UNL711      0.0241
   5689 CL         33.0403    9.5867   25.9474 Cl    712  UNL712     -0.1257
   5690 C          31.4978    8.7050   25.9474 C.3   712  UNL712      0.0198
   5691 C          30.3333    9.6728   25.9474 C.3   712  UNL712     -0.0517
   5692 H          31.4732    8.0679   25.0588 H     712  UNL712      0.0427
   5693 H          31.4732    8.0679   26.8359 H     712  UNL712      0.0427
   5694 H          29.3864    9.1235   25.9474 H     712  UNL712      0.0241
   5695 H          30.3506   10.3140   26.8348 H     712  UNL712      0.0241
   5696 H          30.3506   10.3140   25.0600 H     712  UNL712      0.0241
   5697 CL         31.1395    8.9035   29.8558 Cl    713  UNL713     -0.1257
   5698 C          29.3846    8.7868   29.6037 C.3   713  UNL713      0.0198
   5699 C          29.0501    8.9149   28.1325 C.3   713  UNL713     -0.0517
   5700 H          29.0508    7.8217   29.9952 H     713  UNL713      0.0427
   5701 H          28.9069    9.5832   30.1812 H     713  UNL713      0.0427
   5702 H          27.9680    8.8422   27.9840 H     713  UNL713      0.0241
   5703 H          29.3808    9.8793   27.7332 H     713  UNL713      0.0241
   5704 H          29.5244    8.1201   27.5474 H     713  UNL713      0.0241
   5705 CL         31.8528    7.8833   32.7796 Cl    714  UNL714     -0.1257
   5706 C          30.3103    7.6614   31.9263 C.3   714  UNL714      0.0198
   5707 C          29.1458    7.9050   32.8629 C.3   714  UNL714     -0.0517
   5708 H          30.2857    8.3611   31.0860 H     714  UNL714      0.0427
   5709 H          30.2857    6.6412   31.5333 H     714  UNL714      0.0427
   5710 H          28.1989    7.7668   32.3313 H     714  UNL714      0.0241
   5711 H          29.1631    7.2076   33.7068 H     714  UNL714      0.0241
   5712 H          29.1631    8.9252   33.2601 H     714  UNL714      0.0241
   5713 CL         33.0403    9.3367   35.4300 Cl    715  UNL715     -0.1257
   5714 C          31.4978    8.4550   35.4300 C.3   715  UNL715      0.0198
   5715 C          30.3333    9.4228   35.4300 C.3   715  UNL715     -0.0517
   5716 H          31.4732    7.8179   34.5414 H     715  UNL715      0.0427
   5717 H          31.4732    7.8179   36.3185 H     715  UNL715      0.0427
   5718 H          29.3864    8.8735   35.4300 H     715  UNL715      0.0241
   5719 H          30.3506   10.0640   36.3174 H     715  UNL715      0.0241
   5720 H          30.3506   10.0640   34.5426 H     715  UNL715      0.0241
   5721 CL         32.5552   13.6874    2.6184 Cl    716  UNL716     -0.1257
   5722 C          32.1291   12.2434    1.6749 C.3   716  UNL716      0.0198
   5723 C          30.8083   12.4456    0.9626 C.3   716  UNL716     -0.0517
   5724 H          32.9334   12.0600    0.9569 H     716  UNL716      0.0427
   5725 H          32.0735   11.3951    2.3628 H     716  UNL716      0.0427
   5726 H          30.5517   11.5528    0.3834 H     716  UNL716      0.0241
   5727 H          29.9975   12.6292    1.6752 H     716  UNL716      0.0241
   5728 H          30.8564   13.2932    0.2712 H     716  UNL716      0.0241
   5729 CL         33.0403   12.8193    4.7621 Cl    717  UNL717     -0.1257
   5730 C          31.4978   12.1218    4.2228 C.3   717  UNL717      0.0198
   5731 C          30.3333   12.8875    4.8148 C.3   717  UNL717     -0.0517
   5732 H          31.4732   12.1614    3.1301 H     717  UNL717      0.0427
   5733 H          31.4732   11.0743    4.5360 H     717  UNL717      0.0427
   5734 H          29.3864   12.4529    4.4788 H     717  UNL717      0.0241
   5735 H          30.3506   12.8519    5.9090 H     717  UNL717      0.0241
   5736 H          30.3506   13.9375    4.5050 H     717  UNL717      0.0241
   5737 CL         33.2903   12.6436    8.2265 Cl    718  UNL718     -0.1257
   5738 C          31.7478   11.7619    8.2265 C.3   718  UNL718      0.0198
   5739 C          30.5833   12.7297    8.2265 C.3   718  UNL718     -0.0517
   5740 H          31.7232   11.1248    7.3379 H     718  UNL718      0.0427
   5741 H          31.7232   11.1248    9.1150 H     718  UNL718      0.0427
   5742 H          29.6364   12.1804    8.2265 H     718  UNL718      0.0241
   5743 H          30.6006   13.3709    9.1139 H     718  UNL718      0.0241
   5744 H          30.6006   13.3709    7.3391 H     718  UNL718      0.0241
   5745 CL         32.9778   13.1436   11.1582 Cl    719  UNL719     -0.1257
   5746 C          31.4353   12.2619   11.1582 C.3   719  UNL719      0.0198
   5747 C          30.2708   13.2297   11.1582 C.3   719  UNL719     -0.0517
   5748 H          31.4107   11.6248   10.2696 H     719  UNL719      0.0427
   5749 H          31.4107   11.6248   12.0467 H     719  UNL719      0.0427
   5750 H          29.3239   12.6804   11.1582 H     719  UNL719      0.0241
   5751 H          30.2881   13.8709   12.0456 H     719  UNL719      0.0241
   5752 H          30.2881   13.8709   10.2708 H     719  UNL719      0.0241
   5753 CL         31.8528   12.5228   14.6920 Cl    720  UNL720     -0.1257
   5754 C          30.3103   12.4061   13.8180 C.3   720  UNL720      0.0198
   5755 C          29.1458   12.5342   14.7773 C.3   720  UNL720     -0.0517
   5756 H          30.2857   13.2026   13.0690 H     720  UNL720      0.0427
   5757 H          30.2857   11.4411   13.3041 H     720  UNL720      0.0427
   5758 H          28.1989   12.4615   14.2329 H     720  UNL720      0.0241
   5759 H          29.1631   11.7395   15.5303 H     720  UNL720      0.0241
   5760 H          29.1631   13.4987   15.2955 H     720  UNL720      0.0241
   5761 CL         33.0403   13.0186   17.2716 Cl    721  UNL721     -0.1257
   5762 C          31.4978   12.1369   17.2716 C.3   721  UNL721      0.0198
   5763 C          30.3333   13.1047   17.2716 C.3   721  UNL721     -0.0517
   5764 H          31.4732   11.4998   16.3830 H     721  UNL721      0.0427
   5765 H          31.4732   11.4998   18.1601 H     721  UNL721      0.0427
   5766 H          29.3864   12.5554   17.2716 H     721  UNL721      0.0241
   5767 H          30.3506   13.7459   18.1590 H     721  UNL721      0.0241
   5768 H          30.3506   13.7459   16.3842 H     721  UNL721      0.0241
   5769 CL         32.6028   12.5853   21.0554 Cl    722  UNL722     -0.1257
   5770 C          31.0603   12.4686   20.1814 C.3   722  UNL722      0.0198
   5771 C          29.8958   12.5967   21.1407 C.3   722  UNL722     -0.0517
   5772 H          31.0357   13.2651   19.4323 H     722  UNL722      0.0427
   5773 H          31.0357   11.5036   19.6675 H     722  UNL722      0.0427
   5774 H          28.9489   12.5240   20.5962 H     722  UNL722      0.0241
   5775 H          29.9131   11.8020   21.8937 H     722  UNL722      0.0241
   5776 H          29.9131   13.5612   21.6588 H     722  UNL722      0.0241
   5777 CL         33.2903   13.0186   24.1349 Cl    723  UNL723     -0.1257
   5778 C          31.7478   12.1369   24.1349 C.3   723  UNL723      0.0198
   5779 C          30.5833   13.1047   24.1349 C.3   723  UNL723     -0.0517
   5780 H          31.7232   11.4998   23.2463 H     723  UNL723      0.0427
   5781 H          31.7232   11.4998   25.0234 H     723  UNL723      0.0427
   5782 H          29.6364   12.5554   24.1349 H     723  UNL723      0.0241
   5783 H          30.6006   13.7459   25.0223 H     723  UNL723      0.0241
   5784 H          30.6006   13.7459   23.2475 H     723  UNL723      0.0241
   5785 CL         33.2903   12.6436   27.8166 Cl    724  UNL724     -0.1257
   5786 C          31.7478   11.7619   27.8166 C.3   724  UNL724      0.0198
   5787 C          30.5833   12.7297   27.8166 C.3   724  UNL724     -0.0517
   5788 H          31.7232   11.1248   26.9280 H     724  UNL724      0.0427
   5789 H          31.7232   11.1248   28.7051 H     724  UNL724      0.0427
   5790 H          29.6364   12.1804   27.8166 H     724  UNL724      0.0241
   5791 H          30.6006   13.3709   28.7040 H     724  UNL724      0.0241
   5792 H          30.6006   13.3709   26.9292 H     724  UNL724      0.0241
   5793 CL         33.1028   10.6382   31.9012 Cl    725  UNL725     -0.1257
   5794 C          31.5603   11.1659   32.6076 C.3   725  UNL725      0.0198
   5795 C          30.3958   10.5867   31.8322 C.3   725  UNL725     -0.0517
   5796 H          31.5357   10.8353   33.6498 H     725  UNL725      0.0427
   5797 H          31.5357   12.2590   32.5863 H     725  UNL725      0.0427
   5798 H          29.4489   10.9155   32.2723 H     725  UNL725      0.0241
   5799 H          30.4131   10.9139   30.7874 H     725  UNL725      0.0241
   5800 H          30.4131    9.4920   31.8496 H     725  UNL725      0.0241
   5801 CL         32.5193   13.9496   35.4925 Cl    726  UNL726     -0.1257
   5802 C          31.8383   12.3086   35.4925 C.3   726  UNL726      0.0198
   5803 C          30.3251   12.3619   35.4925 C.3   726  UNL726     -0.0517
   5804 H          32.2086   11.7895   34.6039 H     726  UNL726      0.0427
   5805 H          32.2086   11.7895   36.3810 H     726  UNL726      0.0427
   5806 H          29.9120   11.3481   35.4925 H     726  UNL726      0.0241
   5807 H          29.9466   12.8797   36.3799 H     726  UNL726      0.0241
   5808 H          29.9466   12.8797   34.6051 H     726  UNL726      0.0241
   5809 CL         31.2216   17.7751    1.5047 Cl    727  UNL727     -0.1257
   5810 C          31.7119   16.4512    0.4260 C.3   727  UNL727      0.0198
   5811 C          30.5625   15.4895    0.2096 C.3   727  UNL727     -0.0517
   5812 H          32.0346   16.8903   -0.5222 H     727  UNL727      0.0427
   5813 H          32.5641   15.9410    0.8836 H     727  UNL727      0.0427
   5814 H          30.8710   14.6766   -0.4555 H     727  UNL727      0.0241
   5815 H          30.2342   15.0450    1.1549 H     727  UNL727      0.0241
   5816 H          29.7053   15.9930   -0.2492 H     727  UNL727      0.0241
   5817 CL         32.9778   16.5754    3.6132 Cl    728  UNL728     -0.1257
   5818 C          31.4353   15.6937    3.6132 C.3   728  UNL728      0.0198
   5819 C          30.2708   16.6615    3.6132 C.3   728  UNL728     -0.0517
   5820 H          31.4107   15.0566    2.7246 H     728  UNL728      0.0427
   5821 H          31.4107   15.0566    4.5017 H     728  UNL728      0.0427
   5822 H          29.3239   16.1122    3.6132 H     728  UNL728      0.0241
   5823 H          30.2881   17.3027    4.5006 H     728  UNL728      0.0241
   5824 H          30.2881   17.3027    2.7258 H     728  UNL728      0.0241
   5825 CL         28.8563   16.6748    6.5361 Cl    729  UNL729     -0.1257
   5826 C          30.4800   16.7004    7.2568 C.3   729  UNL729      0.0198
   5827 C          31.3996   15.7437    6.5274 C.3   729  UNL729     -0.0517
   5828 H          30.8594   17.7244    7.1979 H     729  UNL729      0.0427
   5829 H          30.3862   16.4217    8.3101 H     729  UNL729      0.0427
   5830 H          32.3978   15.7642    6.9762 H     729  UNL729      0.0241
   5831 H          31.0267   14.7157    6.5825 H     729  UNL729      0.0241
   5832 H          31.4992   16.0168    5.4718 H     729  UNL729      0.0241
   5833 CL         33.2278   16.3879    9.9765 Cl    730  UNL730     -0.1257
   5834 C          31.6853   15.5062    9.9765 C.3   730  UNL730      0.0198
   5835 C          30.5208   16.4740    9.9765 C.3   730  UNL730     -0.0517
   5836 H          31.6607   14.8691    9.0879 H     730  UNL730      0.0427
   5837 H          31.6607   14.8691   10.8650 H     730  UNL730      0.0427
   5838 H          29.5739   15.9247    9.9765 H     730  UNL730      0.0241
   5839 H          30.5381   17.1152   10.8639 H     730  UNL730      0.0241
   5840 H          30.5381   17.1152    9.0891 H     730  UNL730      0.0241
   5841 CL         31.8528   15.8201   13.5053 Cl    731  UNL731     -0.1257
   5842 C          30.3103   16.3478   12.7989 C.3   731  UNL731      0.0198
   5843 C          29.1458   15.7686   13.5743 C.3   731  UNL731     -0.0517
   5844 H          30.2857   17.4410   12.8203 H     731  UNL731      0.0427
   5845 H          30.2857   16.0172   11.7568 H     731  UNL731      0.0427
   5846 H          28.1989   16.0973   13.1342 H     731  UNL731      0.0241
   5847 H          29.1631   14.6739   13.5569 H     731  UNL731      0.0241
   5848 H          29.1631   16.0958   14.6190 H     731  UNL731      0.0241
   5849 CL         33.1653   16.3254   16.2774 Cl    732  UNL732     -0.1257
   5850 C          31.6228   15.4437   16.2774 C.3   732  UNL732      0.0198
   5851 C          30.4583   16.4115   16.2774 C.3   732  UNL732     -0.0517
   5852 H          31.5982   14.8066   15.3888 H     732  UNL732      0.0427
   5853 H          31.5982   14.8066   17.1659 H     732  UNL732      0.0427
   5854 H          29.5114   15.8622   16.2774 H     732  UNL732      0.0241
   5855 H          30.4756   17.0527   17.1648 H     732  UNL732      0.0241
   5856 H          30.4756   17.0527   15.3900 H     732  UNL732      0.0241
   5857 CL         32.1527   16.9183   20.7198 Cl    733  UNL733     -0.1257
   5858 C          31.2838   15.8055   19.6411 C.3   733  UNL733      0.0198
   5859 C          29.8617   16.2784   19.4247 C.3   733  UNL733     -0.0517
   5860 H          31.8269   15.7617   18.6928 H     733  UNL733      0.0427
   5861 H          31.2973   14.8124   20.0987 H     733  UNL733      0.0427
   5862 H          29.3321   15.5888   18.7596 H     733  UNL733      0.0241
   5863 H          29.3109   16.3243   20.3699 H     733  UNL733      0.0241
   5864 H          29.8398   17.2723   18.9659 H     733  UNL733      0.0241
   5865 CL         33.2278   16.3254   22.5783 Cl    734  UNL734     -0.1257
   5866 C          31.6853   15.4437   22.5783 C.3   734  UNL734      0.0198
   5867 C          30.5208   16.4115   22.5783 C.3   734  UNL734     -0.0517
   5868 H          31.6607   14.8066   21.6897 H     734  UNL734      0.0427
   5869 H          31.6607   14.8066   23.4668 H     734  UNL734      0.0427
   5870 H          29.5739   15.8622   22.5783 H     734  UNL734      0.0241
   5871 H          30.5381   17.0527   23.4657 H     734  UNL734      0.0241
   5872 H          30.5381   17.0527   21.6909 H     734  UNL734      0.0241
   5873 CL         29.5470   14.7514   26.2687 Cl    735  UNL735     -0.1257
   5874 C          30.3783   16.1465   25.5480 C.3   735  UNL735      0.0198
   5875 C          31.6754   16.4263   26.2774 C.3   735  UNL735     -0.0517
   5876 H          30.5662   15.9202   24.4946 H     735  UNL735      0.0427
   5877 H          29.7063   17.0072   25.6068 H     735  UNL735      0.0427
   5878 H          32.1824   17.2865   25.8286 H     735  UNL735      0.0241
   5879 H          31.4954   16.6546   27.3330 H     735  UNL735      0.0241
   5880 H          32.3542   15.5690   26.2223 H     735  UNL735      0.0241
   5881 CL         31.0541   17.1198   29.4762 Cl    736  UNL736     -0.1257
   5882 C          29.5111   16.5937   28.7698 C.3   736  UNL736      0.0198
   5883 C          28.9441   15.4232   29.5452 C.3   736  UNL736     -0.0517
   5884 H          28.8230   17.4435   28.7912 H     736  UNL736      0.0427
   5885 H          29.6938   16.3171   27.7277 H     736  UNL736      0.0427
   5886 H          27.9940   15.1040   29.1051 H     736  UNL736      0.0241
   5887 H          29.6274   14.5678   29.5278 H     736  UNL736      0.0241
   5888 H          28.7577   15.6926   30.5899 H     736  UNL736      0.0241
   5889 CL         33.1028   16.5129   32.2483 Cl    737  UNL737     -0.1257
   5890 C          31.5603   15.6312   32.2483 C.3   737  UNL737      0.0198
   5891 C          30.3958   16.5990   32.2483 C.3   737  UNL737     -0.0517
   5892 H          31.5357   14.9941   31.3597 H     737  UNL737      0.0427
   5893 H          31.5357   14.9941   33.1368 H     737  UNL737      0.0427
   5894 H          29.4489   16.0497   32.2483 H     737  UNL737      0.0241
   5895 H          30.4131   17.2402   33.1357 H     737  UNL737      0.0241
   5896 H          30.4131   17.2402   31.3609 H     737  UNL737      0.0241
   5897 CL         30.1696   14.8764   36.5657 Cl    738  UNL738     -0.1257
   5898 C          30.3864   16.2715   35.4870 C.3   738  UNL738      0.0198
   5899 C          31.8586   16.5513   35.2706 C.3   738  UNL738     -0.0517
   5900 H          29.8907   16.0452   34.5387 H     738  UNL738      0.0427
   5901 H          29.8907   17.1322   35.9446 H     738  UNL738      0.0427
   5902 H          31.9852   17.4115   34.6055 H     738  UNL738      0.0241
   5903 H          32.3620   16.7796   36.2158 H     738  UNL738      0.0241
   5904 H          32.3620   15.6940   34.8118 H     738  UNL738      0.0241
   5905 CL         32.7366   20.1323    2.6184 Cl    739  UNL739     -0.1257
   5906 C          31.5163   19.2506    1.6749 C.3   739  UNL739      0.0198
   5907 C          30.5951   20.2184    0.9626 C.3   739  UNL739     -0.0517
   5908 H          32.0404   18.6135    0.9569 H     739  UNL739      0.0427
   5909 H          30.9534   18.6135    2.3628 H     739  UNL739      0.0427
   5910 H          29.8460   19.6691    0.3834 H     739  UNL739      0.0241
   5911 H          30.0659   20.8596    1.6752 H     739  UNL739      0.0241
   5912 H          31.1516   20.8596    0.2712 H     739  UNL739      0.0241
   5913 CL         33.2903   19.5581    5.2621 Cl    740  UNL740     -0.1257
   5914 C          31.7478   18.8606    4.7228 C.3   740  UNL740      0.0198
   5915 C          30.5833   19.6262    5.3148 C.3   740  UNL740     -0.0517
   5916 H          31.7232   18.9001    3.6301 H     740  UNL740      0.0427
   5917 H          31.7232   17.8131    5.0360 H     740  UNL740      0.0427
   5918 H          29.6364   19.1917    4.9788 H     740  UNL740      0.0241
   5919 H          30.6006   19.5907    6.4090 H     740  UNL740      0.0241
   5920 H          30.6006   20.6763    5.0050 H     740  UNL740      0.0241
   5921 CL         32.9153   20.1323    8.4765 Cl    741  UNL741     -0.1257
   5922 C          31.3728   19.2506    8.4765 C.3   741  UNL741      0.0198
   5923 C          30.2083   20.2184    8.4765 C.3   741  UNL741     -0.0517
   5924 H          31.3482   18.6135    7.5879 H     741  UNL741      0.0427
   5925 H          31.3482   18.6135    9.3650 H     741  UNL741      0.0427
   5926 H          29.2614   19.6691    8.4765 H     741  UNL741      0.0241
   5927 H          30.2256   20.8596    9.3639 H     741  UNL741      0.0241
   5928 H          30.2256   20.8596    7.5891 H     741  UNL741      0.0241
   5929 CL         32.6443   20.2263    9.6714 Cl    742  UNL742     -0.1257
   5930 C          31.9633   19.8132   11.2596 C.3   742  UNL742      0.0198
   5931 C          30.4501   19.8266   11.2080 C.3   742  UNL742     -0.0517
   5932 H          32.3336   18.8226   11.5383 H     742  UNL742      0.0427
   5933 H          32.3336   20.5425   11.9856 H     742  UNL742      0.0427
   5934 H          30.0370   19.5715   12.1891 H     742  UNL742      0.0241
   5935 H          30.0716   20.8158   10.9302 H     742  UNL742      0.0241
   5936 H          30.0716   19.0982   10.4835 H     742  UNL742      0.0241
   5937 CL         32.8616   20.1323   12.8346 Cl    743  UNL743     -0.1257
   5938 C          31.6413   19.2506   13.7782 C.3   743  UNL743      0.0198
   5939 C          30.7201   20.2184   14.4905 C.3   743  UNL743     -0.0517
   5940 H          31.0783   18.6135   13.0902 H     743  UNL743      0.0427
   5941 H          32.1653   18.6135   14.4961 H     743  UNL743      0.0427
   5942 H          29.9710   19.6691   15.0697 H     743  UNL743      0.0241
   5943 H          31.2766   20.8596   15.1819 H     743  UNL743      0.0241
   5944 H          30.1910   20.8596   13.7779 H     743  UNL743      0.0241
   5945 CL         33.2903   19.6831   17.0543 Cl    744  UNL744     -0.1257
   5946 C          31.7478   18.9856   17.5936 C.3   744  UNL744      0.0198
   5947 C          30.5833   19.7512   17.0016 C.3   744  UNL744     -0.0517
   5948 H          31.7232   17.9380   17.2803 H     744  UNL744      0.0427
   5949 H          31.7232   19.0251   18.6862 H     744  UNL744      0.0427
   5950 H          29.6364   19.3167   17.3376 H     744  UNL744      0.0241
   5951 H          30.6006   20.8013   17.3114 H     744  UNL744      0.0241
   5952 H          30.6006   19.7157   15.9074 H     744  UNL744      0.0241
   5953 CL         32.6443   21.3134   20.9533 Cl    745  UNL745     -0.1257
   5954 C          31.9633   19.6723   20.9533 C.3   745  UNL745      0.0198
   5955 C          30.4501   19.7256   20.9533 C.3   745  UNL745     -0.0517
   5956 H          32.3336   19.1533   20.0647 H     745  UNL745      0.0427
   5957 H          32.3336   19.1533   21.8418 H     745  UNL745      0.0427
   5958 H          30.0370   18.7119   20.9533 H     745  UNL745      0.0241
   5959 H          30.0716   20.2435   21.8407 H     745  UNL745      0.0241
   5960 H          30.0716   20.2435   20.0659 H     745  UNL745      0.0241
   5961 CL         32.6897   19.6887   25.6196 Cl    746  UNL746     -0.1257
   5962 C          31.8961   19.8343   24.0367 C.3   746  UNL746      0.0198
   5963 C          30.5065   19.2345   24.0825 C.3   746  UNL746     -0.0517
   5964 H          31.8524   20.8959   23.7774 H     746  UNL746      0.0427
   5965 H          32.5174   19.3188   23.2989 H     746  UNL746      0.0427
   5966 H          30.0232   19.3274   23.1047 H     746  UNL746      0.0241
   5967 H          30.5419   18.1711   24.3409 H     746  UNL746      0.0241
   5968 H          29.8779   19.7461   24.8187 H     746  UNL746      0.0241
   5969 CL         33.1653   20.0698   27.3166 Cl    747  UNL747     -0.1257
   5970 C          31.6228   19.1881   27.3166 C.3   747  UNL747      0.0198
   5971 C          30.4583   20.1559   27.3166 C.3   747  UNL747     -0.0517
   5972 H          31.5982   18.5510   26.4280 H     747  UNL747      0.0427
   5973 H          31.5982   18.5510   28.2051 H     747  UNL747      0.0427
   5974 H          29.5114   19.6066   27.3166 H     747  UNL747      0.0241
   5975 H          30.4756   20.7971   28.2040 H     747  UNL747      0.0241
   5976 H          30.4756   20.7971   26.4292 H     747  UNL747      0.0241
   5977 CL         31.2500   19.5645   30.7054 Cl    748  UNL748     -0.1257
   5978 C          30.4618   20.0922   32.2077 C.3   748  UNL748      0.0198
   5979 C          29.0663   19.5130   32.3067 C.3   748  UNL748     -0.0517
   5980 H          31.0798   19.7615   33.0473 H     748  UNL748      0.0427
   5981 H          30.4293   21.1853   32.2059 H     748  UNL748      0.0427
   5982 H          28.5864   19.8417   33.2340 H     748  UNL748      0.0241
   5983 H          28.4409   19.8402   31.4695 H     748  UNL748      0.0241
   5984 H          29.0906   18.4183   32.3098 H     748  UNL748      0.0241
   5985 CL         32.7366   20.1323   34.1122 Cl    749  UNL749     -0.1257
   5986 C          31.5163   19.2506   35.0557 C.3   749  UNL749      0.0198
   5987 C          30.5951   20.2184   35.7681 C.3   749  UNL749     -0.0517
   5988 H          30.9533   18.6135   34.3678 H     749  UNL749      0.0427
   5989 H          32.0403   18.6135   35.7737 H     749  UNL749      0.0427
   5990 H          29.8460   19.6691   36.3473 H     749  UNL749      0.0241
   5991 H          31.1516   20.8596   36.4595 H     749  UNL749      0.0241
   5992 H          30.0660   20.8596   35.0554 H     749  UNL749      0.0241
   5993 CL         33.2278   23.6267    0.3065 Cl    750  UNL750     -0.1257
   5994 C          31.6853   22.7450    0.3065 C.3   750  UNL750      0.0198
   5995 C          30.5208   23.7128    0.3065 C.3   750  UNL750     -0.0517
   5996 H          31.6607   22.1079   -0.5821 H     750  UNL750      0.0427
   5997 H          31.6607   22.1079    1.1950 H     750  UNL750      0.0427
   5998 H          29.5739   23.1635    0.3065 H     750  UNL750      0.0241
   5999 H          30.5381   24.3540    1.1939 H     750  UNL750      0.0241
   6000 H          30.5381   24.3540   -0.5809 H     750  UNL750      0.0241
   6001 CL         32.9666   24.2457    3.5507 Cl    751  UNL751     -0.1257
   6002 C          31.9183   22.8113    3.5507 C.3   751  UNL751      0.0198
   6003 C          30.4602   23.2196    3.5507 C.3   751  UNL751     -0.0517
   6004 H          32.1558   22.2196    2.6621 H     751  UNL751      0.0427
   6005 H          32.1558   22.2196    4.4392 H     751  UNL751      0.0427
   6006 H          29.8199   22.3317    3.5507 H     751  UNL751      0.0241
   6007 H          30.2143   23.8121    4.4381 H     751  UNL751      0.0241
   6008 H          30.2143   23.8121    2.6633 H     751  UNL751      0.0241
   6009 CL         32.9778   23.8142    6.6699 Cl    752  UNL752     -0.1257
   6010 C          31.4353   22.9325    6.6699 C.3   752  UNL752      0.0198
   6011 C          30.2708   23.9003    6.6699 C.3   752  UNL752     -0.0517
   6012 H          31.4107   22.2954    5.7813 H     752  UNL752      0.0427
   6013 H          31.4107   22.2954    7.5584 H     752  UNL752      0.0427
   6014 H          29.3239   23.3510    6.6699 H     752  UNL752      0.0241
   6015 H          30.2881   24.5415    7.5573 H     752  UNL752      0.0241
   6016 H          30.2881   24.5415    5.7825 H     752  UNL752      0.0241
   6017 CL         32.0541   24.4210   10.1361 Cl    753  UNL753     -0.1257
   6018 C          30.5111   23.8949    9.4297 C.3   753  UNL753      0.0198
   6019 C          29.9441   22.7244   10.2051 C.3   753  UNL753     -0.0517
   6020 H          29.8230   24.7447    9.4511 H     753  UNL753      0.0427
   6021 H          30.6938   23.6184    8.3876 H     753  UNL753      0.0427
   6022 H          28.9940   22.4053    9.7650 H     753  UNL753      0.0241
   6023 H          30.6274   21.8690   10.1877 H     753  UNL753      0.0241
   6024 H          29.7577   22.9939   11.2499 H     753  UNL753      0.0241
   6025 CL         32.8616   23.4392   12.0280 Cl    754  UNL754     -0.1257
   6026 C          31.6413   22.5575   12.9715 C.3   754  UNL754      0.0198
   6027 C          30.7201   23.5253   13.6838 C.3   754  UNL754     -0.0517
   6028 H          31.0783   21.9204   12.2836 H     754  UNL754      0.0427
   6029 H          32.1653   21.9204   13.6894 H     754  UNL754      0.0427
   6030 H          29.9710   22.9760   14.2630 H     754  UNL754      0.0241
   6031 H          31.2766   24.1665   14.3752 H     754  UNL754      0.0241
   6032 H          30.1910   24.1665   12.9712 H     754  UNL754      0.0241
   6033 CL         32.7791   24.3707   16.3399 Cl    755  UNL755     -0.1257
   6034 C          31.7308   22.9363   16.3399 C.3   755  UNL755      0.0198
   6035 C          30.2727   23.3446   16.3399 C.3   755  UNL755     -0.0517
   6036 H          31.9683   22.3446   15.4513 H     755  UNL755      0.0427
   6037 H          31.9683   22.3446   17.2284 H     755  UNL755      0.0427
   6038 H          29.6324   22.4567   16.3399 H     755  UNL755      0.0241
   6039 H          30.0268   23.9371   17.2273 H     755  UNL755      0.0241
   6040 H          30.0268   23.9371   15.4525 H     755  UNL755      0.0241
   6041 CL         33.2903   23.5642   19.5216 Cl    756  UNL756     -0.1257
   6042 C          31.7478   22.6825   19.5216 C.3   756  UNL756      0.0198
   6043 C          30.5833   23.6503   19.5216 C.3   756  UNL756     -0.0517
   6044 H          31.7232   22.0454   18.6330 H     756  UNL756      0.0427
   6045 H          31.7232   22.0454   20.4101 H     756  UNL756      0.0427
   6046 H          29.6364   23.1010   19.5216 H     756  UNL756      0.0241
   6047 H          30.6006   24.2915   20.4090 H     756  UNL756      0.0241
   6048 H          30.6006   24.2915   18.6342 H     756  UNL756      0.0241
   6049 CL         29.7970   21.7402   23.1496 Cl    757  UNL757     -0.1257
   6050 C          30.6283   23.1352   22.4288 C.3   757  UNL757      0.0198
   6051 C          31.9254   23.4151   23.1582 C.3   757  UNL757     -0.0517
   6052 H          30.8162   22.9089   21.3754 H     757  UNL757      0.0427
   6053 H          29.9563   23.9959   22.4876 H     757  UNL757      0.0427
   6054 H          32.4324   24.2753   22.7095 H     757  UNL757      0.0241
   6055 H          31.7454   23.6434   24.2138 H     757  UNL757      0.0241
   6056 H          32.6042   22.5577   23.1031 H     757  UNL757      0.0241
   6057 CL         33.1028   23.6267   25.7599 Cl    758  UNL758     -0.1257
   6058 C          31.5603   22.7450   25.7599 C.3   758  UNL758      0.0198
   6059 C          30.3958   23.7128   25.7599 C.3   758  UNL758     -0.0517
   6060 H          31.5357   22.1079   24.8713 H     758  UNL758      0.0427
   6061 H          31.5357   22.1079   26.6484 H     758  UNL758      0.0427
   6062 H          29.4489   23.1635   25.7599 H     758  UNL758      0.0241
   6063 H          30.4131   24.3540   26.6473 H     758  UNL758      0.0241
   6064 H          30.4131   24.3540   24.8725 H     758  UNL758      0.0241
   6065 CL         30.8528   23.2769   29.2720 Cl    759  UNL759     -0.1257
   6066 C          29.3103   22.9531   28.4519 C.3   759  UNL759      0.0198
   6067 C          28.1458   23.3086   29.3521 C.3   759  UNL759     -0.0517
   6068 H          29.2857   23.5455   27.5330 H     759  UNL759      0.0427
   6069 H          29.2857   21.8927   28.1857 H     759  UNL759      0.0427
   6070 H          27.1989   23.1068   28.8412 H     759  UNL759      0.0241
   6071 H          28.1631   22.7187   30.2744 H     759  UNL759      0.0241
   6072 H          28.1631   24.3695   29.6225 H     759  UNL759      0.0241
   6073 CL         33.2903   23.5642   32.3108 Cl    760  UNL760     -0.1257
   6074 C          31.7478   22.6825   32.3108 C.3   760  UNL760      0.0198
   6075 C          30.5833   23.6503   32.3108 C.3   760  UNL760     -0.0517
   6076 H          31.7232   22.0454   31.4222 H     760  UNL760      0.0427
   6077 H          31.7232   22.0454   33.1993 H     760  UNL760      0.0427
   6078 H          29.6364   23.1010   32.3108 H     760  UNL760      0.0241
   6079 H          30.6006   24.2915   33.1982 H     760  UNL760      0.0241
   6080 H          30.6006   24.2915   31.4234 H     760  UNL760      0.0241
   6081 CL         33.2903   27.2461    1.1132 Cl    761  UNL761     -0.1257
   6082 C          31.7478   26.3644    1.1132 C.3   761  UNL761      0.0198
   6083 C          30.5833   27.3322    1.1132 C.3   761  UNL761     -0.0517
   6084 H          31.7232   25.7273    0.2246 H     761  UNL761      0.0427
   6085 H          31.7232   25.7273    2.0017 H     761  UNL761      0.0427
   6086 H          29.6364   26.7829    1.1132 H     761  UNL761      0.0241
   6087 H          30.6006   27.9734    2.0006 H     761  UNL761      0.0241
   6088 H          30.6006   27.9734    0.2258 H     761  UNL761      0.0241
   6089 CL         32.6147   26.0538    5.8001 Cl    762  UNL762     -0.1257
   6090 C          31.1101   26.1027    4.8566 C.3   762  UNL762      0.0198
   6091 C          30.9732   27.4319    4.1443 C.3   762  UNL762     -0.0517
   6092 H          31.1350   25.2782    4.1386 H     762  UNL762      0.0427
   6093 H          30.2750   25.9431    5.5444 H     762  UNL762      0.0427
   6094 H          30.0446   27.4555    3.5651 H     762  UNL762      0.0241
   6095 H          30.9469   28.2628    4.8569 H     762  UNL762      0.0241
   6096 H          31.8057   27.5987    3.4528 H     762  UNL762      0.0241
   6097 CL         33.2903   26.9219    8.0093 Cl    763  UNL763     -0.1257
   6098 C          31.7478   26.2244    8.5486 C.3   763  UNL763      0.0198
   6099 C          30.5833   26.9900    7.9566 C.3   763  UNL763     -0.0517
   6100 H          31.7232   25.1768    8.2353 H     763  UNL763      0.0427
   6101 H          31.7232   26.2638    9.6412 H     763  UNL763      0.0427
   6102 H          29.6364   26.5554    8.2926 H     763  UNL763      0.0241
   6103 H          30.6006   28.0401    8.2664 H     763  UNL763      0.0241
   6104 H          30.6006   26.9544    6.8623 H     763  UNL763      0.0241
   6105 CL         31.5982   26.6783   14.0008 Cl    764  UNL764     -0.1257
   6106 C          29.9458   27.2059   13.6161 C.3   764  UNL764      0.0198
   6107 C          29.4988   26.6267   12.2904 C.3   764  UNL764     -0.0517
   6108 H          29.2889   26.8753   14.4256 H     764  UNL764      0.0427
   6109 H          29.9394   28.2990   13.5842 H     764  UNL764      0.0427
   6110 H          28.4806   26.9555   12.0594 H     764  UNL764      0.0241
   6111 H          30.1516   26.9540   11.4745 H     764  UNL764      0.0241
   6112 H          29.5019   25.5321   12.3147 H     764  UNL764      0.0241
   6113 CL         32.7693   28.1771   16.3399 Cl    765  UNL765     -0.1257
   6114 C          32.0883   26.5361   16.3399 C.3   765  UNL765      0.0198
   6115 C          30.5751   26.5894   16.3399 C.3   765  UNL765     -0.0517
   6116 H          32.4586   26.0170   15.4513 H     765  UNL765      0.0427
   6117 H          32.4586   26.0170   17.2284 H     765  UNL765      0.0427
   6118 H          30.1620   25.5757   16.3399 H     765  UNL765      0.0241
   6119 H          30.1966   27.1072   17.2273 H     765  UNL765      0.0241
   6120 H          30.1966   27.1072   15.4525 H     765  UNL765      0.0241
   6121 CL         32.6443   28.1771   19.5216 Cl    766  UNL766     -0.1257
   6122 C          31.9633   26.5361   19.5216 C.3   766  UNL766      0.0198
   6123 C          30.4501   26.5894   19.5216 C.3   766  UNL766     -0.0517
   6124 H          32.3336   26.0170   18.6330 H     766  UNL766      0.0427
   6125 H          32.3336   26.0170   20.4101 H     766  UNL766      0.0427
   6126 H          30.0370   25.5757   19.5216 H     766  UNL766      0.0241
   6127 H          30.0716   27.1072   20.4090 H     766  UNL766      0.0241
   6128 H          30.0716   27.1072   18.6342 H     766  UNL766      0.0241
   6129 CL         32.8616   27.1211   23.8960 Cl    767  UNL767     -0.1257
   6130 C          31.6413   26.2394   22.9525 C.3   767  UNL767      0.0198
   6131 C          30.7201   27.2072   22.2402 C.3   767  UNL767     -0.0517
   6132 H          32.1654   25.6023   22.2345 H     767  UNL767      0.0427
   6133 H          31.0784   25.6023   23.6403 H     767  UNL767      0.0427
   6134 H          29.9710   26.6579   21.6610 H     767  UNL767      0.0241
   6135 H          30.1909   27.8484   22.9528 H     767  UNL767      0.0241
   6136 H          31.2766   27.8484   21.5487 H     767  UNL767      0.0241
   6137 CL         32.7366   27.3711   27.0777 Cl    768  UNL768     -0.1257
   6138 C          31.5163   26.4894   26.1342 C.3   768  UNL768      0.0198
   6139 C          30.5951   27.4572   25.4219 C.3   768  UNL768     -0.0517
   6140 H          32.0404   25.8523   25.4161 H     768  UNL768      0.0427
   6141 H          30.9534   25.8523   26.8220 H     768  UNL768      0.0427
   6142 H          29.8460   26.9079   24.8427 H     768  UNL768      0.0241
   6143 H          30.0659   28.0984   26.1345 H     768  UNL768      0.0241
   6144 H          31.1516   28.0984   24.7304 H     768  UNL768      0.0241
   6145 CL         32.7693   28.1771   29.1916 Cl    769  UNL769     -0.1257
   6146 C          32.0883   26.5361   29.1916 C.3   769  UNL769      0.0198
   6147 C          30.5751   26.5894   29.1916 C.3   769  UNL769     -0.0517
   6148 H          32.4586   26.0170   28.3030 H     769  UNL769      0.0427
   6149 H          32.4586   26.0170   30.0801 H     769  UNL769      0.0427
   6150 H          30.1620   25.5757   29.1916 H     769  UNL769      0.0241
   6151 H          30.1966   27.1072   30.0790 H     769  UNL769      0.0241
   6152 H          30.1966   27.1072   28.3042 H     769  UNL769      0.0241
   6153 CL         32.1527   27.5889   31.1126 Cl    770  UNL770     -0.1257
   6154 C          31.2838   26.4762   32.1913 C.3   770  UNL770      0.0198
   6155 C          29.8617   26.9490   32.4077 C.3   770  UNL770     -0.0517
   6156 H          31.2973   25.4830   31.7336 H     770  UNL770      0.0427
   6157 H          31.8269   26.4323   33.1395 H     770  UNL770      0.0427
   6158 H          29.3321   26.2595   33.0728 H     770  UNL770      0.0241
   6159 H          29.8398   27.9430   32.8665 H     770  UNL770      0.0241
   6160 H          29.3109   26.9949   31.4624 H     770  UNL770      0.0241
   6161 CL         32.6443   28.1771   35.6175 Cl    771  UNL771     -0.1257
   6162 C          31.9633   26.5361   35.6175 C.3   771  UNL771      0.0198
   6163 C          30.4501   26.5894   35.6175 C.3   771  UNL771     -0.0517
   6164 H          32.3336   26.0170   34.7289 H     771  UNL771      0.0427
   6165 H          32.3336   26.0170   36.5060 H     771  UNL771      0.0427
   6166 H          30.0370   25.5757   35.6175 H     771  UNL771      0.0241
   6167 H          30.0716   27.1072   36.5049 H     771  UNL771      0.0241
   6168 H          30.0716   27.1072   34.7301 H     771  UNL771      0.0241
   6169 CL         32.5193   31.9840    0.3690 Cl    772  UNL772     -0.1257
   6170 C          31.8383   30.3430    0.3690 C.3   772  UNL772      0.0198
   6171 C          30.3251   30.3963    0.3690 C.3   772  UNL772     -0.0517
   6172 H          32.2086   29.8239   -0.5196 H     772  UNL772      0.0427
   6173 H          32.2086   29.8239    1.2575 H     772  UNL772      0.0427
   6174 H          29.9120   29.3825    0.3690 H     772  UNL772      0.0241
   6175 H          29.9466   30.9141    1.2564 H     772  UNL772      0.0241
   6176 H          29.9466   30.9141   -0.5184 H     772  UNL772      0.0241
   6177 CL         29.8953   31.6152    3.9028 Cl    773  UNL773     -0.1257
   6178 C          28.7464   30.5793    3.0288 C.3   773  UNL773      0.0198
   6179 C          27.7469   29.9684    3.9881 C.3   773  UNL773     -0.0517
   6180 H          28.2398   31.1944    2.2797 H     773  UNL773      0.0427
   6181 H          29.3172   29.8009    2.5149 H     773  UNL773      0.0427
   6182 H          27.0422   29.3316    3.4437 H     773  UNL773      0.0241
   6183 H          28.2467   29.3502    4.7411 H     773  UNL773      0.0241
   6184 H          27.1706   30.7419    4.5062 H     773  UNL773      0.0241
   6185 CL         32.8416   31.4845    6.7324 Cl    774  UNL774     -0.1257
   6186 C          31.7933   30.0501    6.7324 C.3   774  UNL774      0.0198
   6187 C          30.3352   30.4584    6.7324 C.3   774  UNL774     -0.0517
   6188 H          32.0308   29.4584    5.8438 H     774  UNL774      0.0427
   6189 H          32.0308   29.4584    7.6209 H     774  UNL774      0.0427
   6190 H          29.6949   29.5705    6.7324 H     774  UNL774      0.0241
   6191 H          30.0893   31.0508    7.6198 H     774  UNL774      0.0241
   6192 H          30.0893   31.0508    5.8450 H     774  UNL774      0.0241
   6193 CL         29.6720   28.8539   10.3603 Cl    775  UNL775     -0.1257
   6194 C          30.5033   30.2490    9.6396 C.3   775  UNL775      0.0198
   6195 C          31.8004   30.5288   10.3690 C.3   775  UNL775     -0.0517
   6196 H          30.6912   30.0227    8.5862 H     775  UNL775      0.0427
   6197 H          29.8313   31.1097    9.6984 H     775  UNL775      0.0427
   6198 H          32.3074   31.3891    9.9202 H     775  UNL775      0.0241
   6199 H          31.6204   30.7571   11.4246 H     775  UNL775      0.0241
   6200 H          32.4792   29.6715   10.3139 H     775  UNL775      0.0241
   6201 CL         33.1028   30.7405   13.1582 Cl    776  UNL776     -0.1257
   6202 C          31.5603   29.8588   13.1582 C.3   776  UNL776      0.0198
   6203 C          30.3958   30.8266   13.1582 C.3   776  UNL776     -0.0517
   6204 H          31.5357   29.2217   12.2696 H     776  UNL776      0.0427
   6205 H          31.5357   29.2217   14.0467 H     776  UNL776      0.0427
   6206 H          29.4489   30.2773   13.1582 H     776  UNL776      0.0241
   6207 H          30.4131   31.4678   14.0456 H     776  UNL776      0.0241
   6208 H          30.4131   31.4678   12.2708 H     776  UNL776      0.0241
   6209 CL         30.2151   29.3134   18.1368 Cl    777  UNL777     -0.1257
   6210 C          30.1150   29.7971   16.4301 C.3   777  UNL777      0.0198
   6211 C          31.2253   30.7681   16.0877 C.3   777  UNL777     -0.0517
   6212 H          30.1872   28.8934   15.8184 H     777  UNL777      0.0427
   6213 H          29.1352   30.2540   16.2657 H     777  UNL777      0.0427
   6214 H          31.1581   31.0621   15.0354 H     777  UNL777      0.0241
   6215 H          31.1594   31.6763   16.6959 H     777  UNL777      0.0241
   6216 H          32.2100   30.3174   16.2492 H     777  UNL777      0.0241
   6217 CL         29.6696   29.1039   20.5948 Cl    778  UNL778     -0.1257
   6218 C          29.8864   30.4990   19.5161 C.3   778  UNL778      0.0198
   6219 C          31.3586   30.7788   19.2997 C.3   778  UNL778     -0.0517
   6220 H          29.3907   30.2727   18.5678 H     778  UNL778      0.0427
   6221 H          29.3907   31.3597   19.9737 H     778  UNL778      0.0427
   6222 H          31.4852   31.6391   18.6346 H     778  UNL778      0.0241
   6223 H          31.8620   31.0071   20.2449 H     778  UNL778      0.0241
   6224 H          31.8620   29.9215   18.8409 H     778  UNL778      0.0241
   6225 CL         31.5982   30.3601   21.8606 Cl    779  UNL779     -0.1257
   6226 C          29.9458   30.8878   22.2453 C.3   779  UNL779      0.0198
   6227 C          29.4988   30.3086   23.5710 C.3   779  UNL779     -0.0517
   6228 H          29.9394   31.9810   22.2773 H     779  UNL779      0.0427
   6229 H          29.2889   30.5573   21.4359 H     779  UNL779      0.0427
   6230 H          28.4806   30.6373   23.8021 H     779  UNL779      0.0241
   6231 H          29.5019   29.2139   23.5467 H     779  UNL779      0.0241
   6232 H          30.1516   30.6358   24.3870 H     779  UNL779      0.0241
   6233 CL         33.5403   30.5530   26.0099 Cl    780  UNL780     -0.1257
   6234 C          31.9978   29.6713   26.0099 C.3   780  UNL780      0.0198
   6235 C          30.8333   30.6391   26.0099 C.3   780  UNL780     -0.0517
   6236 H          31.9732   29.0342   25.1213 H     780  UNL780      0.0427
   6237 H          31.9732   29.0342   26.8984 H     780  UNL780      0.0427
   6238 H          29.8864   30.0898   26.0099 H     780  UNL780      0.0241
   6239 H          30.8506   31.2803   26.8973 H     780  UNL780      0.0241
   6240 H          30.8506   31.2803   25.1225 H     780  UNL780      0.0241
   6241 CL         29.6696   28.7161   28.9416 Cl    781  UNL781     -0.1257
   6242 C          29.8864   30.4795   28.9416 C.3   781  UNL781      0.0198
   6243 C          31.3586   30.8333   28.9416 C.3   781  UNL781     -0.0517
   6244 H          29.3907   30.8805   28.0530 H     781  UNL781      0.0427
   6245 H          29.3907   30.8805   29.8301 H     781  UNL781      0.0427
   6246 H          31.4852   31.9206   28.9416 H     781  UNL781      0.0241
   6247 H          31.8620   30.4357   29.8290 H     781  UNL781      0.0241
   6248 H          31.8620   30.4357   28.0542 H     781  UNL781      0.0241
   6249 CL         32.6443   31.9840   32.1858 Cl    782  UNL782     -0.1257
   6250 C          31.9633   30.3430   32.1858 C.3   782  UNL782      0.0198
   6251 C          30.4501   30.3963   32.1858 C.3   782  UNL782     -0.0517
   6252 H          32.3336   29.8239   31.2972 H     782  UNL782      0.0427
   6253 H          32.3336   29.8239   33.0743 H     782  UNL782      0.0427
   6254 H          30.0370   29.3825   32.1858 H     782  UNL782      0.0241
   6255 H          30.0716   30.9141   33.0732 H     782  UNL782      0.0241
   6256 H          30.0716   30.9141   31.2984 H     782  UNL782      0.0241
   6257 CL         30.5326   35.9607    0.3690 Cl    783  UNL783     -0.1257
   6258 C          31.2024   34.3151    0.3690 C.3   783  UNL783      0.0198
   6259 C          30.0890   33.2889    0.3690 C.3   783  UNL783     -0.0517
   6260 H          31.8307   34.2064   -0.5196 H     783  UNL783      0.0427
   6261 H          31.8307   34.2064    1.2575 H     783  UNL783      0.0427
   6262 H          30.5082   32.2776    0.3690 H     783  UNL783      0.0241
   6263 H          29.4558   33.3909    1.2564 H     783  UNL783      0.0241
   6264 H          29.4558   33.3909   -0.5184 H     783  UNL783      0.0241
   6265 CL         33.2903   34.3598    3.4257 Cl    784  UNL784     -0.1257
   6266 C          31.7478   33.4781    3.4257 C.3   784  UNL784      0.0198
   6267 C          30.5833   34.4459    3.4257 C.3   784  UNL784     -0.0517
   6268 H          31.7232   32.8410    2.5371 H     784  UNL784      0.0427
   6269 H          31.7232   32.8410    4.3142 H     784  UNL784      0.0427
   6270 H          29.6364   33.8966    3.4257 H     784  UNL784      0.0241
   6271 H          30.6006   35.0871    4.3131 H     784  UNL784      0.0241
   6272 H          30.6006   35.0871    2.5383 H     784  UNL784      0.0241
   6273 CL         32.3943   35.5409    6.7324 Cl    785  UNL785     -0.1257
   6274 C          31.7133   33.8998    6.7324 C.3   785  UNL785      0.0198
   6275 C          30.2001   33.9532    6.7324 C.3   785  UNL785     -0.0517
   6276 H          32.0836   33.3808    5.8438 H     785  UNL785      0.0427
   6277 H          32.0836   33.3808    7.6209 H     785  UNL785      0.0427
   6278 H          29.7870   32.9394    6.7324 H     785  UNL785      0.0241
   6279 H          29.8216   34.4710    7.6198 H     785  UNL785      0.0241
   6280 H          29.8216   34.4710    5.8450 H     785  UNL785      0.0241
   6281 CL         33.2278   34.2348    9.8515 Cl    786  UNL786     -0.1257
   6282 C          31.6853   33.3531    9.8515 C.3   786  UNL786      0.0198
   6283 C          30.5208   34.3209    9.8515 C.3   786  UNL786     -0.0517
   6284 H          31.6607   32.7160    8.9629 H     786  UNL786      0.0427
   6285 H          31.6607   32.7160   10.7400 H     786  UNL786      0.0427
   6286 H          29.5739   33.7716    9.8515 H     786  UNL786      0.0241
   6287 H          30.5381   34.9621   10.7389 H     786  UNL786      0.0241
   6288 H          30.5381   34.9621    8.9641 H     786  UNL786      0.0241
   6289 CL         31.0982   33.9170   12.1906 Cl    787  UNL787     -0.1257
   6290 C          29.4458   34.4447   12.5753 C.3   787  UNL787      0.0198
   6291 C          28.9988   33.8655   13.9010 C.3   787  UNL787     -0.0517
   6292 H          29.4394   35.5379   12.6073 H     787  UNL787      0.0427
   6293 H          28.7889   34.1141   11.7659 H     787  UNL787      0.0427
   6294 H          27.9806   34.1942   14.1321 H     787  UNL787      0.0241
   6295 H          29.0019   32.7708   13.8767 H     787  UNL787      0.0241
   6296 H          29.6516   34.1927   14.7169 H     787  UNL787      0.0241
   6297 CL         31.6922   34.4848   14.3538 Cl    788  UNL788     -0.1257
   6298 C          31.3039   33.6031   15.8467 C.3   788  UNL788      0.0198
   6299 C          31.0108   34.5709   16.9737 C.3   788  UNL788     -0.0517
   6300 H          30.4377   32.9660   15.6468 H     788  UNL788      0.0427
   6301 H          32.1576   32.9660   16.0941 H     788  UNL788      0.0427
   6302 H          30.7725   34.0216   17.8901 H     788  UNL788      0.0241
   6303 H          31.8740   35.2121   17.1803 H     788  UNL788      0.0241
   6304 H          30.1564   35.2121   16.7336 H     788  UNL788      0.0241
   6305 CL         32.3943   34.3913   21.0084 Cl    789  UNL789     -0.1257
   6306 C          31.7133   33.9782   19.4202 C.3   789  UNL789      0.0198
   6307 C          30.2001   33.9917   19.4718 C.3   789  UNL789     -0.0517
   6308 H          32.0836   34.7076   18.6942 H     789  UNL789      0.0427
   6309 H          32.0836   32.9877   19.1415 H     789  UNL789      0.0427
   6310 H          29.7870   33.7365   18.4907 H     789  UNL789      0.0241
   6311 H          29.8216   33.2632   20.1963 H     789  UNL789      0.0241
   6312 H          29.8216   34.9808   19.7496 H     789  UNL789      0.0241
   6313 CL         33.1028   34.2973   22.7033 Cl    790  UNL790     -0.1257
   6314 C          31.5603   33.4156   22.7033 C.3   790  UNL790      0.0198
   6315 C          30.3958   34.3834   22.7033 C.3   790  UNL790     -0.0517
   6316 H          31.5357   32.7785   21.8147 H     790  UNL790      0.0427
   6317 H          31.5357   32.7785   23.5918 H     790  UNL790      0.0427
   6318 H          29.4489   33.8341   22.7033 H     790  UNL790      0.0241
   6319 H          30.4131   35.0246   23.5907 H     790  UNL790      0.0241
   6320 H          30.4131   35.0246   21.8159 H     790  UNL790      0.0241
   6321 CL         30.5326   34.5284   27.8990 Cl    791  UNL791     -0.1257
   6322 C          31.2024   34.1142   26.3064 C.3   791  UNL791      0.0198
   6323 C          30.0890   33.8559   25.3132 C.3   791  UNL791     -0.0517
   6324 H          31.8307   34.9468   25.9775 H     791  UNL791      0.0427
   6325 H          31.8307   33.2269   26.4248 H     791  UNL791      0.0427
   6326 H          30.5082   33.6014   24.3345 H     791  UNL791      0.0241
   6327 H          29.4558   33.0228   25.6353 H     791  UNL791      0.0241
   6328 H          29.4558   34.7404   25.1886 H     791  UNL791      0.0241
   6329 CL         32.3943   35.4159   29.1916 Cl    792  UNL792     -0.1257
   6330 C          31.7133   33.7748   29.1916 C.3   792  UNL792      0.0198
   6331 C          30.2001   33.8282   29.1916 C.3   792  UNL792     -0.0517
   6332 H          32.0836   33.2558   28.3030 H     792  UNL792      0.0427
   6333 H          32.0836   33.2558   30.0801 H     792  UNL792      0.0427
   6334 H          29.7870   32.8144   29.1916 H     792  UNL792      0.0241
   6335 H          29.8216   34.3460   30.0790 H     792  UNL792      0.0241
   6336 H          29.8216   34.3460   28.3042 H     792  UNL792      0.0241
   6337 CL         30.5326   36.0857   32.3108 Cl    793  UNL793     -0.1257
   6338 C          31.2024   34.4401   32.3108 C.3   793  UNL793      0.0198
   6339 C          30.0890   33.4139   32.3108 C.3   793  UNL793     -0.0517
   6340 H          31.8307   34.3314   31.4222 H     793  UNL793      0.0427
   6341 H          31.8307   34.3314   33.1993 H     793  UNL793      0.0427
   6342 H          30.5082   32.4026   32.3108 H     793  UNL793      0.0241
   6343 H          29.4558   33.5159   33.1982 H     793  UNL793      0.0241
   6344 H          29.4558   33.5159   31.4234 H     793  UNL793      0.0241
   6345 CL         31.0359   36.2051   35.3050 Cl    794  UNL794     -0.1257
   6346 C          31.5009   34.4903   35.3050 C.3   794  UNL794      0.0198
   6347 C          30.2712   33.6069   35.3050 C.3   794  UNL794     -0.0517
   6348 H          32.1113   34.3062   34.4164 H     794  UNL794      0.0427
   6349 H          32.1113   34.3062   36.1935 H     794  UNL794      0.0427
   6350 H          30.5645   32.5522   35.3050 H     794  UNL794      0.0241
   6351 H          29.6550   33.7850   36.1924 H     794  UNL794      0.0241
   6352 H          29.6550   33.7850   34.4176 H     794  UNL794      0.0241
@<TRIPOS>BOND
     1     1     2    1
     2     2     3    1
     3     2     4    1
     4     2     5    1
     5     3     6    1
     6     3     7    1
     7     3     8    1
     8     9    10    1
     9    10    11    1
    10    10    12    1
    11    10    13    1
    12    11    14    1
    13    11    15    1
    14    11    16    1
    15    17    18    1
    16    18    19    1
    17    18    20    1
    18    18    21    1
    19    19    22    1
    20    19    23    1
    21    19    24    1
    22    25    26    1
    23    26    27    1
    24    26    28    1
    25    26    29    1
    26    27    30    1
    27    27    31    1
    28    27    32    1
    29    33    34    1
    30    34    35    1
    31    34    36    1
    32    34    37    1
    33    35    38    1
    34    35    39    1
    35    35    40    1
    36    41    42    1
    37    42    43    1
    38    42    44    1
    39    42    45    1
    40    43    46    1
    41    43    47    1
    42    43    48    1
    43    49    50    1
    44    50    51    1
    45    50    52    1
    46    50    53    1
    47    51    54    1
    48    51    55    1
    49    51    56    1
    50    57    58    1
    51    58    59    1
    52    58    60    1
    53    58    61    1
    54    59    62    1
    55    59    63    1
    56    59    64    1
    57    65    66    1
    58    66    67    1
    59    66    68    1
    60    66    69    1
    61    67    70    1
    62    67    71    1
    63    67    72    1
    64    73    74    1
    65    74    75    1
    66    74    76    1
    67    74    77    1
    68    75    78    1
    69    75    79    1
    70    75    80    1
    71    81    82    1
    72    82    83    1
    73    82    84    1
    74    82    85    1
    75    83    86    1
    76    83    87    1
    77    83    88    1
    78    89    90    1
    79    90    91    1
    80    90    92    1
    81    90    93    1
    82    91    94    1
    83    91    95    1
    84    91    96    1
    85    97    98    1
    86    98    99    1
    87    98   100    1
    88    98   101    1
    89    99   102    1
    90    99   103    1
    91    99   104    1
    92   105   106    1
    93   106   107    1
    94   106   108    1
    95   106   109    1
    96   107   110    1
    97   107   111    1
    98   107   112    1
    99   113   114    1
   100   114   115    1
   101   114   116    1
   102   114   117    1
   103   115   118    1
   104   115   119    1
   105   115   120    1
   106   121   122    1
   107   122   123    1
   108   122   124    1
   109   122   125    1
   110   123   126    1
   111   123   127    1
   112   123   128    1
   113   129   130    1
   114   130   131    1
   115   130   132    1
   116   130   133    1
   117   131   134    1
   118   131   135    1
   119   131   136    1
   120   137   138    1
   121   138   139    1
   122   138   140    1
   123   138   141    1
   124   139   142    1
   125   139   143    1
   126   139   144    1
   127   145   146    1
   128   146   147    1
   129   146   148    1
   130   146   149    1
   131   147   150    1
   132   147   151    1
   133   147   152    1
   134   153   154    1
   135   154   155    1
   136   154   156    1
   137   154   157    1
   138   155   158    1
   139   155   159    1
   140   155   160    1
   141   161   162    1
   142   162   163    1
   143   162   164    1
   144   162   165    1
   145   163   166    1
   146   163   167    1
   147   163   168    1
   148   169   170    1
   149   170   171    1
   150   170   172    1
   151   170   173    1
   152   171   174    1
   153   171   175    1
   154   171   176    1
   155   177   178    1
   156   178   179    1
   157   178   180    1
   158   178   181    1
   159   179   182    1
   160   179   183    1
   161   179   184    1
   162   185   186    1
   163   186   187    1
   164   186   188    1
   165   186   189    1
   166   187   190    1
   167   187   191    1
   168   187   192    1
   169   193   194    1
   170   194   195    1
   171   194   196    1
   172   194   197    1
   173   195   198    1
   174   195   199    1
   175   195   200    1
   176   201   202    1
   177   202   203    1
   178   202   204    1
   179   202   205    1
   180   203   206    1
   181   203   207    1
   182   203   208    1
   183   209   210    1
   184   210   211    1
   185   210   212    1
   186   210   213    1
   187   211   214    1
   188   211   215    1
   189   211   216    1
   190   217   218    1
   191   218   219    1
   192   218   220    1
   193   218   221    1
   194   219   222    1
   195   219   223    1
   196   219   224    1
   197   225   226    1
   198   226   227    1
   199   226   228    1
   200   226   229    1
   201   227   230    1
   202   227   231    1
   203   227   232    1
   204   233   234    1
   205   234   235    1
   206   234   236    1
   207   234   237    1
   208   235   238    1
   209   235   239    1
   210   235   240    1
   211   241   242    1
   212   242   243    1
   213   242   244    1
   214   242   245    1
   215   243   246    1
   216   243   247    1
   217   243   248    1
   218   249   250    1
   219   250   251    1
   220   250   252    1
   221   250   253    1
   222   251   254    1
   223   251   255    1
   224   251   256    1
   225   257   258    1
   226   258   259    1
   227   258   260    1
   228   258   261    1
   229   259   262    1
   230   259   263    1
   231   259   264    1
   232   265   266    1
   233   266   267    1
   234   266   268    1
   235   266   269    1
   236   267   270    1
   237   267   271    1
   238   267   272    1
   239   273   274    1
   240   274   275    1
   241   274   276    1
   242   274   277    1
   243   275   278    1
   244   275   279    1
   245   275   280    1
   246   281   282    1
   247   282   283    1
   248   282   284    1
   249   282   285    1
   250   283   286    1
   251   283   287    1
   252   283   288    1
   253   289   290    1
   254   290   291    1
   255   290   292    1
   256   290   293    1
   257   291   294    1
   258   291   295    1
   259   291   296    1
   260   297   298    1
   261   298   299    1
   262   298   300    1
   263   298   301    1
   264   299   302    1
   265   299   303    1
   266   299   304    1
   267   305   306    1
   268   306   307    1
   269   306   308    1
   270   306   309    1
   271   307   310    1
   272   307   311    1
   273   307   312    1
   274   313   314    1
   275   314   315    1
   276   314   316    1
   277   314   317    1
   278   315   318    1
   279   315   319    1
   280   315   320    1
   281   321   322    1
   282   322   323    1
   283   322   324    1
   284   322   325    1
   285   323   326    1
   286   323   327    1
   287   323   328    1
   288   329   330    1
   289   330   331    1
   290   330   332    1
   291   330   333    1
   292   331   334    1
   293   331   335    1
   294   331   336    1
   295   337   338    1
   296   338   339    1
   297   338   340    1
   298   338   341    1
   299   339   342    1
   300   339   343    1
   301   339   344    1
   302   345   346    1
   303   346   347    1
   304   346   348    1
   305   346   349    1
   306   347   350    1
   307   347   351    1
   308   347   352    1
   309   353   354    1
   310   354   355    1
   311   354   356    1
   312   354   357    1
   313   355   358    1
   314   355   359    1
   315   355   360    1
   316   361   362    1
   317   362   363    1
   318   362   364    1
   319   362   365    1
   320   363   366    1
   321   363   367    1
   322   363   368    1
   323   369   370    1
   324   370   371    1
   325   370   372    1
   326   370   373    1
   327   371   374    1
   328   371   375    1
   329   371   376    1
   330   377   378    1
   331   378   379    1
   332   378   380    1
   333   378   381    1
   334   379   382    1
   335   379   383    1
   336   379   384    1
   337   385   386    1
   338   386   387    1
   339   386   388    1
   340   386   389    1
   341   387   390    1
   342   387   391    1
   343   387   392    1
   344   393   394    1
   345   394   395    1
   346   394   396    1
   347   394   397    1
   348   395   398    1
   349   395   399    1
   350   395   400    1
   351   401   402    1
   352   402   403    1
   353   402   404    1
   354   402   405    1
   355   403   406    1
   356   403   407    1
   357   403   408    1
   358   409   410    1
   359   410   411    1
   360   410   412    1
   361   410   413    1
   362   411   414    1
   363   411   415    1
   364   411   416    1
   365   417   418    1
   366   418   419    1
   367   418   420    1
   368   418   421    1
   369   419   422    1
   370   419   423    1
   371   419   424    1
   372   425   426    1
   373   426   427    1
   374   426   428    1
   375   426   429    1
   376   427   430    1
   377   427   431    1
   378   427   432    1
   379   433   434    1
   380   434   435    1
   381   434   436    1
   382   434   437    1
   383   435   438    1
   384   435   439    1
   385   435   440    1
   386   441   442    1
   387   442   443    1
   388   442   444    1
   389   442   445    1
   390   443   446    1
   391   443   447    1
   392   443   448    1
   393   449   450    1
   394   450   451    1
   395   450   452    1
   396   450   453    1
   397   451   454    1
   398   451   455    1
   399   451   456    1
   400   457   458    1
   401   458   459    1
   402   458   460    1
   403   458   461    1
   404   459   462    1
   405   459   463    1
   406   459   464    1
   407   465   466    1
   408   466   467    1
   409   466   468    1
   410   466   469    1
   411   467   470    1
   412   467   471    1
   413   467   472    1
   414   473   474    1
   415   474   475    1
   416   474   476    1
   417   474   477    1
   418   475   478    1
   419   475   479    1
   420   475   480    1
   421   481   482    1
   422   482   483    1
   423   482   484    1
   424   482   485    1
   425   483   486    1
   426   483   487    1
   427   483   488    1
   428   489   490    1
   429   490   491    1
   430   490   492    1
   431   490   493    1
   432   491   494    1
   433   491   495    1
   434   491   496    1
   435   497   498    1
   436   498   499    1
   437   498   500    1
   438   498   501    1
   439   499   502    1
   440   499   503    1
   441   499   504    1
   442   505   506    1
   443   506   507    1
   444   506   508    1
   445   506   509    1
   446   507   510    1
   447   507   511    1
   448   507   512    1
   449   513   514    1
   450   514   515    1
   451   514   516    1
   452   514   517    1
   453   515   518    1
   454   515   519    1
   455   515   520    1
   456   521   522    1
   457   522   523    1
   458   522   524    1
   459   522   525    1
   460   523   526    1
   461   523   527    1
   462   523   528    1
   463   529   530    1
   464   530   531    1
   465   530   532    1
   466   530   533    1
   467   531   534    1
   468   531   535    1
   469   531   536    1
   470   537   538    1
   471   538   539    1
   472   538   540    1
   473   538   541    1
   474   539   542    1
   475   539   543    1
   476   539   544    1
   477   545   546    1
   478   546   547    1
   479   546   548    1
   480   546   549    1
   481   547   550    1
   482   547   551    1
   483   547   552    1
   484   553   554    1
   485   554   555    1
   486   554   556    1
   487   554   557    1
   488   555   558    1
   489   555   559    1
   490   555   560    1
   491   561   562    1
   492   562   563    1
   493   562   564    1
   494   562   565    1
   495   563   566    1
   496   563   567    1
   497   563   568    1
   498   569   570    1
   499   570   571    1
   500   570   572    1
   501   570   573    1
   502   571   574    1
   503   571   575    1
   504   571   576    1
   505   577   578    1
   506   578   579    1
   507   578   580    1
   508   578   581    1
   509   579   582    1
   510   579   583    1
   511   579   584    1
   512   585   586    1
   513   586   587    1
   514   586   588    1
   515   586   589    1
   516   587   590    1
   517   587   591    1
   518   587   592    1
   519   593   594    1
   520   594   595    1
   521   594   596    1
   522   594   597    1
   523   595   598    1
   524   595   599    1
   525   595   600    1
   526   601   602    1
   527   602   603    1
   528   602   604    1
   529   602   605    1
   530   603   606    1
   531   603   607    1
   532   603   608    1
   533   609   610    1
   534   610   611    1
   535   610   612    1
   536   610   613    1
   537   611   614    1
   538   611   615    1
   539   611   616    1
   540   617   618    1
   541   618   619    1
   542   618   620    1
   543   618   621    1
   544   619   622    1
   545   619   623    1
   546   619   624    1
   547   625   626    1
   548   626   627    1
   549   626   628    1
   550   626   629    1
   551   627   630    1
   552   627   631    1
   553   627   632    1
   554   633   634    1
   555   634   635    1
   556   634   636    1
   557   634   637    1
   558   635   638    1
   559   635   639    1
   560   635   640    1
   561   641   642    1
   562   642   643    1
   563   642   644    1
   564   642   645    1
   565   643   646    1
   566   643   647    1
   567   643   648    1
   568   649   650    1
   569   650   651    1
   570   650   652    1
   571   650   653    1
   572   651   654    1
   573   651   655    1
   574   651   656    1
   575   657   658    1
   576   658   659    1
   577   658   660    1
   578   658   661    1
   579   659   662    1
   580   659   663    1
   581   659   664    1
   582   665   666    1
   583   666   667    1
   584   666   668    1
   585   666   669    1
   586   667   670    1
   587   667   671    1
   588   667   672    1
   589   673   674    1
   590   674   675    1
   591   674   676    1
   592   674   677    1
   593   675   678    1
   594   675   679    1
   595   675   680    1
   596   681   682    1
   597   682   683    1
   598   682   684    1
   599   682   685    1
   600   683   686    1
   601   683   687    1
   602   683   688    1
   603   689   690    1
   604   690   691    1
   605   690   692    1
   606   690   693    1
   607   691   694    1
   608   691   695    1
   609   691   696    1
   610   697   698    1
   611   698   699    1
   612   698   700    1
   613   698   701    1
   614   699   702    1
   615   699   703    1
   616   699   704    1
   617   705   706    1
   618   706   707    1
   619   706   708    1
   620   706   709    1
   621   707   710    1
   622   707   711    1
   623   707   712    1
   624   713   714    1
   625   714   715    1
   626   714   716    1
   627   714   717    1
   628   715   718    1
   629   715   719    1
   630   715   720    1
   631   721   722    1
   632   722   723    1
   633   722   724    1
   634   722   725    1
   635   723   726    1
   636   723   727    1
   637   723   728    1
   638   729   730    1
   639   730   731    1
   640   730   732    1
   641   730   733    1
   642   731   734    1
   643   731   735    1
   644   731   736    1
   645   737   738    1
   646   738   739    1
   647   738   740    1
   648   738   741    1
   649   739   742    1
   650   739   743    1
   651   739   744    1
   652   745   746    1
   653   746   747    1
   654   746   748    1
   655   746   749    1
   656   747   750    1
   657   747   751    1
   658   747   752    1
   659   753   754    1
   660   754   755    1
   661   754   756    1
   662   754   757    1
   663   755   758    1
   664   755   759    1
   665   755   760    1
   666   761   762    1
   667   762   763    1
   668   762   764    1
   669   762   765    1
   670   763   766    1
   671   763   767    1
   672   763   768    1
   673   769   770    1
   674   770   771    1
   675   770   772    1
   676   770   773    1
   677   771   774    1
   678   771   775    1
   679   771   776    1
   680   777   778    1
   681   778   779    1
   682   778   780    1
   683   778   781    1
   684   779   782    1
   685   779   783    1
   686   779   784    1
   687   785   786    1
   688   786   787    1
   689   786   788    1
   690   786   789    1
   691   787   790    1
   692   787   791    1
   693   787   792    1
   694   793   794    1
   695   794   795    1
   696   794   796    1
   697   794   797    1
   698   795   798    1
   699   795   799    1
   700   795   800    1
   701   801   802    1
   702   802   803    1
   703   802   804    1
   704   802   805    1
   705   803   806    1
   706   803   807    1
   707   803   808    1
   708   809   810    1
   709   810   811    1
   710   810   812    1
   711   810   813    1
   712   811   814    1
   713   811   815    1
   714   811   816    1
   715   817   818    1
   716   818   819    1
   717   818   820    1
   718   818   821    1
   719   819   822    1
   720   819   823    1
   721   819   824    1
   722   825   826    1
   723   826   827    1
   724   826   828    1
   725   826   829    1
   726   827   830    1
   727   827   831    1
   728   827   832    1
   729   833   834    1
   730   834   835    1
   731   834   836    1
   732   834   837    1
   733   835   838    1
   734   835   839    1
   735   835   840    1
   736   841   842    1
   737   842   843    1
   738   842   844    1
   739   842   845    1
   740   843   846    1
   741   843   847    1
   742   843   848    1
   743   849   850    1
   744   850   851    1
   745   850   852    1
   746   850   853    1
   747   851   854    1
   748   851   855    1
   749   851   856    1
   750   857   858    1
   751   858   859    1
   752   858   860    1
   753   858   861    1
   754   859   862    1
   755   859   863    1
   756   859   864    1
   757   865   866    1
   758   866   867    1
   759   866   868    1
   760   866   869    1
   761   867   870    1
   762   867   871    1
   763   867   872    1
   764   873   874    1
   765   874   875    1
   766   874   876    1
   767   874   877    1
   768   875   878    1
   769   875   879    1
   770   875   880    1
   771   881   882    1
   772   882   883    1
   773   882   884    1
   774   882   885    1
   775   883   886    1
   776   883   887    1
   777   883   888    1
   778   889   890    1
   779   890   891    1
   780   890   892    1
   781   890   893    1
   782   891   894    1
   783   891   895    1
   784   891   896    1
   785   897   898    1
   786   898   899    1
   787   898   900    1
   788   898   901    1
   789   899   902    1
   790   899   903    1
   791   899   904    1
   792   905   906    1
   793   906   907    1
   794   906   908    1
   795   906   909    1
   796   907   910    1
   797   907   911    1
   798   907   912    1
   799   913   914    1
   800   914   915    1
   801   914   916    1
   802   914   917    1
   803   915   918    1
   804   915   919    1
   805   915   920    1
   806   921   922    1
   807   922   923    1
   808   922   924    1
   809   922   925    1
   810   923   926    1
   811   923   927    1
   812   923   928    1
   813   929   930    1
   814   930   931    1
   815   930   932    1
   816   930   933    1
   817   931   934    1
   818   931   935    1
   819   931   936    1
   820   937   938    1
   821   938   939    1
   822   938   940    1
   823   938   941    1
   824   939   942    1
   825   939   943    1
   826   939   944    1
   827   945   946    1
   828   946   947    1
   829   946   948    1
   830   946   949    1
   831   947   950    1
   832   947   951    1
   833   947   952    1
   834   953   954    1
   835   954   955    1
   836   954   956    1
   837   954   957    1
   838   955   958    1
   839   955   959    1
   840   955   960    1
   841   961   962    1
   842   962   963    1
   843   962   964    1
   844   962   965    1
   845   963   966    1
   846   963   967    1
   847   963   968    1
   848   969   970    1
   849   970   971    1
   850   970   972    1
   851   970   973    1
   852   971   974    1
   853   971   975    1
   854   971   976    1
   855   977   978    1
   856   978   979    1
   857   978   980    1
   858   978   981    1
   859   979   982    1
   860   979   983    1
   861   979   984    1
   862   985   986    1
   863   986   987    1
   864   986   988    1
   865   986   989    1
   866   987   990    1
   867   987   991    1
   868   987   992    1
   869   993   994    1
   870   994   995    1
   871   994   996    1
   872   994   997    1
   873   995   998    1
   874   995   999    1
   875   995  1000    1
   876  1001  1002    1
   877  1002  1003    1
   878  1002  1004    1
   879  1002  1005    1
   880  1003  1006    1
   881  1003  1007    1
   882  1003  1008    1
   883  1009  1010    1
   884  1010  1011    1
   885  1010  1012    1
   886  1010  1013    1
   887  1011  1014    1
   888  1011  1015    1
   889  1011  1016    1
   890  1017  1018    1
   891  1018  1019    1
   892  1018  1020    1
   893  1018  1021    1
   894  1019  1022    1
   895  1019  1023    1
   896  1019  1024    1
   897  1025  1026    1
   898  1026  1027    1
   899  1026  1028    1
   900  1026  1029    1
   901  1027  1030    1
   902  1027  1031    1
   903  1027  1032    1
   904  1033  1034    1
   905  1034  1035    1
   906  1034  1036    1
   907  1034  1037    1
   908  1035  1038    1
   909  1035  1039    1
   910  1035  1040    1
   911  1041  1042    1
   912  1042  1043    1
   913  1042  1044    1
   914  1042  1045    1
   915  1043  1046    1
   916  1043  1047    1
   917  1043  1048    1
   918  1049  1050    1
   919  1050  1051    1
   920  1050  1052    1
   921  1050  1053    1
   922  1051  1054    1
   923  1051  1055    1
   924  1051  1056    1
   925  1057  1058    1
   926  1058  1059    1
   927  1058  1060    1
   928  1058  1061    1
   929  1059  1062    1
   930  1059  1063    1
   931  1059  1064    1
   932  1065  1066    1
   933  1066  1067    1
   934  1066  1068    1
   935  1066  1069    1
   936  1067  1070    1
   937  1067  1071    1
   938  1067  1072    1
   939  1073  1074    1
   940  1074  1075    1
   941  1074  1076    1
   942  1074  1077    1
   943  1075  1078    1
   944  1075  1079    1
   945  1075  1080    1
   946  1081  1082    1
   947  1082  1083    1
   948  1082  1084    1
   949  1082  1085    1
   950  1083  1086    1
   951  1083  1087    1
   952  1083  1088    1
   953  1089  1090    1
   954  1090  1091    1
   955  1090  1092    1
   956  1090  1093    1
   957  1091  1094    1
   958  1091  1095    1
   959  1091  1096    1
   960  1097  1098    1
   961  1098  1099    1
   962  1098  1100    1
   963  1098  1101    1
   964  1099  1102    1
   965  1099  1103    1
   966  1099  1104    1
   967  1105  1106    1
   968  1106  1107    1
   969  1106  1108    1
   970  1106  1109    1
   971  1107  1110    1
   972  1107  1111    1
   973  1107  1112    1
   974  1113  1114    1
   975  1114  1115    1
   976  1114  1116    1
   977  1114  1117    1
   978  1115  1118    1
   979  1115  1119    1
   980  1115  1120    1
   981  1121  1122    1
   982  1122  1123    1
   983  1122  1124    1
   984  1122  1125    1
   985  1123  1126    1
   986  1123  1127    1
   987  1123  1128    1
   988  1129  1130    1
   989  1130  1131    1
   990  1130  1132    1
   991  1130  1133    1
   992  1131  1134    1
   993  1131  1135    1
   994  1131  1136    1
   995  1137  1138    1
   996  1138  1139    1
   997  1138  1140    1
   998  1138  1141    1
   999  1139  1142    1
  1000  1139  1143    1
  1001  1139  1144    1
  1002  1145  1146    1
  1003  1146  1147    1
  1004  1146  1148    1
  1005  1146  1149    1
  1006  1147  1150    1
  1007  1147  1151    1
  1008  1147  1152    1
  1009  1153  1154    1
  1010  1154  1155    1
  1011  1154  1156    1
  1012  1154  1157    1
  1013  1155  1158    1
  1014  1155  1159    1
  1015  1155  1160    1
  1016  1161  1162    1
  1017  1162  1163    1
  1018  1162  1164    1
  1019  1162  1165    1
  1020  1163  1166    1
  1021  1163  1167    1
  1022  1163  1168    1
  1023  1169  1170    1
  1024  1170  1171    1
  1025  1170  1172    1
  1026  1170  1173    1
  1027  1171  1174    1
  1028  1171  1175    1
  1029  1171  1176    1
  1030  1177  1178    1
  1031  1178  1179    1
  1032  1178  1180    1
  1033  1178  1181    1
  1034  1179  1182    1
  1035  1179  1183    1
  1036  1179  1184    1
  1037  1185  1186    1
  1038  1186  1187    1
  1039  1186  1188    1
  1040  1186  1189    1
  1041  1187  1190    1
  1042  1187  1191    1
  1043  1187  1192    1
  1044  1193  1194    1
  1045  1194  1195    1
  1046  1194  1196    1
  1047  1194  1197    1
  1048  1195  1198    1
  1049  1195  1199    1
  1050  1195  1200    1
  1051  1201  1202    1
  1052  1202  1203    1
  1053  1202  1204    1
  1054  1202  1205    1
  1055  1203  1206    1
  1056  1203  1207    1
  1057  1203  1208    1
  1058  1209  1210    1
  1059  1210  1211    1
  1060  1210  1212    1
  1061  1210  1213    1
  1062  1211  1214    1
  1063  1211  1215    1
  1064  1211  1216    1
  1065  1217  1218    1
  1066  1218  1219    1
  1067  1218  1220    1
  1068  1218  1221    1
  1069  1219  1222    1
  1070  1219  1223    1
  1071  1219  1224    1
  1072  1225  1226    1
  1073  1226  1227    1
  1074  1226  1228    1
  1075  1226  1229    1
  1076  1227  1230    1
  1077  1227  1231    1
  1078  1227  1232    1
  1079  1233  1234    1
  1080  1234  1235    1
  1081  1234  1236    1
  1082  1234  1237    1
  1083  1235  1238    1
  1084  1235  1239    1
  1085  1235  1240    1
  1086  1241  1242    1
  1087  1242  1243    1
  1088  1242  1244    1
  1089  1242  1245    1
  1090  1243  1246    1
  1091  1243  1247    1
  1092  1243  1248    1
  1093  1249  1250    1
  1094  1250  1251    1
  1095  1250  1252    1
  1096  1250  1253    1
  1097  1251  1254    1
  1098  1251  1255    1
  1099  1251  1256    1
  1100  1257  1258    1
  1101  1258  1259    1
  1102  1258  1260    1
  1103  1258  1261    1
  1104  1259  1262    1
  1105  1259  1263    1
  1106  1259  1264    1
  1107  1265  1266    1
  1108  1266  1267    1
  1109  1266  1268    1
  1110  1266  1269    1
  1111  1267  1270    1
  1112  1267  1271    1
  1113  1267  1272    1
  1114  1273  1274    1
  1115  1274  1275    1
  1116  1274  1276    1
  1117  1274  1277    1
  1118  1275  1278    1
  1119  1275  1279    1
  1120  1275  1280    1
  1121  1281  1282    1
  1122  1282  1283    1
  1123  1282  1284    1
  1124  1282  1285    1
  1125  1283  1286    1
  1126  1283  1287    1
  1127  1283  1288    1
  1128  1289  1290    1
  1129  1290  1291    1
  1130  1290  1292    1
  1131  1290  1293    1
  1132  1291  1294    1
  1133  1291  1295    1
  1134  1291  1296    1
  1135  1297  1298    1
  1136  1298  1299    1
  1137  1298  1300    1
  1138  1298  1301    1
  1139  1299  1302    1
  1140  1299  1303    1
  1141  1299  1304    1
  1142  1305  1306    1
  1143  1306  1307    1
  1144  1306  1308    1
  1145  1306  1309    1
  1146  1307  1310    1
  1147  1307  1311    1
  1148  1307  1312    1
  1149  1313  1314    1
  1150  1314  1315    1
  1151  1314  1316    1
  1152  1314  1317    1
  1153  1315  1318    1
  1154  1315  1319    1
  1155  1315  1320    1
  1156  1321  1322    1
  1157  1322  1323    1
  1158  1322  1324    1
  1159  1322  1325    1
  1160  1323  1326    1
  1161  1323  1327    1
  1162  1323  1328    1
  1163  1329  1330    1
  1164  1330  1331    1
  1165  1330  1332    1
  1166  1330  1333    1
  1167  1331  1334    1
  1168  1331  1335    1
  1169  1331  1336    1
  1170  1337  1338    1
  1171  1338  1339    1
  1172  1338  1340    1
  1173  1338  1341    1
  1174  1339  1342    1
  1175  1339  1343    1
  1176  1339  1344    1
  1177  1345  1346    1
  1178  1346  1347    1
  1179  1346  1348    1
  1180  1346  1349    1
  1181  1347  1350    1
  1182  1347  1351    1
  1183  1347  1352    1
  1184  1353  1354    1
  1185  1354  1355    1
  1186  1354  1356    1
  1187  1354  1357    1
  1188  1355  1358    1
  1189  1355  1359    1
  1190  1355  1360    1
  1191  1361  1362    1
  1192  1362  1363    1
  1193  1362  1364    1
  1194  1362  1365    1
  1195  1363  1366    1
  1196  1363  1367    1
  1197  1363  1368    1
  1198  1369  1370    1
  1199  1370  1371    1
  1200  1370  1372    1
  1201  1370  1373    1
  1202  1371  1374    1
  1203  1371  1375    1
  1204  1371  1376    1
  1205  1377  1378    1
  1206  1378  1379    1
  1207  1378  1380    1
  1208  1378  1381    1
  1209  1379  1382    1
  1210  1379  1383    1
  1211  1379  1384    1
  1212  1385  1386    1
  1213  1386  1387    1
  1214  1386  1388    1
  1215  1386  1389    1
  1216  1387  1390    1
  1217  1387  1391    1
  1218  1387  1392    1
  1219  1393  1394    1
  1220  1394  1395    1
  1221  1394  1396    1
  1222  1394  1397    1
  1223  1395  1398    1
  1224  1395  1399    1
  1225  1395  1400    1
  1226  1401  1402    1
  1227  1402  1403    1
  1228  1402  1404    1
  1229  1402  1405    1
  1230  1403  1406    1
  1231  1403  1407    1
  1232  1403  1408    1
  1233  1409  1410    1
  1234  1410  1411    1
  1235  1410  1412    1
  1236  1410  1413    1
  1237  1411  1414    1
  1238  1411  1415    1
  1239  1411  1416    1
  1240  1417  1418    1
  1241  1418  1419    1
  1242  1418  1420    1
  1243  1418  1421    1
  1244  1419  1422    1
  1245  1419  1423    1
  1246  1419  1424    1
  1247  1425  1426    1
  1248  1426  1427    1
  1249  1426  1428    1
  1250  1426  1429    1
  1251  1427  1430    1
  1252  1427  1431    1
  1253  1427  1432    1
  1254  1433  1434    1
  1255  1434  1435    1
  1256  1434  1436    1
  1257  1434  1437    1
  1258  1435  1438    1
  1259  1435  1439    1
  1260  1435  1440    1
  1261  1441  1442    1
  1262  1442  1443    1
  1263  1442  1444    1
  1264  1442  1445    1
  1265  1443  1446    1
  1266  1443  1447    1
  1267  1443  1448    1
  1268  1449  1450    1
  1269  1450  1451    1
  1270  1450  1452    1
  1271  1450  1453    1
  1272  1451  1454    1
  1273  1451  1455    1
  1274  1451  1456    1
  1275  1457  1458    1
  1276  1458  1459    1
  1277  1458  1460    1
  1278  1458  1461    1
  1279  1459  1462    1
  1280  1459  1463    1
  1281  1459  1464    1
  1282  1465  1466    1
  1283  1466  1467    1
  1284  1466  1468    1
  1285  1466  1469    1
  1286  1467  1470    1
  1287  1467  1471    1
  1288  1467  1472    1
  1289  1473  1474    1
  1290  1474  1475    1
  1291  1474  1476    1
  1292  1474  1477    1
  1293  1475  1478    1
  1294  1475  1479    1
  1295  1475  1480    1
  1296  1481  1482    1
  1297  1482  1483    1
  1298  1482  1484    1
  1299  1482  1485    1
  1300  1483  1486    1
  1301  1483  1487    1
  1302  1483  1488    1
  1303  1489  1490    1
  1304  1490  1491    1
  1305  1490  1492    1
  1306  1490  1493    1
  1307  1491  1494    1
  1308  1491  1495    1
  1309  1491  1496    1
  1310  1497  1498    1
  1311  1498  1499    1
  1312  1498  1500    1
  1313  1498  1501    1
  1314  1499  1502    1
  1315  1499  1503    1
  1316  1499  1504    1
  1317  1505  1506    1
  1318  1506  1507    1
  1319  1506  1508    1
  1320  1506  1509    1
  1321  1507  1510    1
  1322  1507  1511    1
  1323  1507  1512    1
  1324  1513  1514    1
  1325  1514  1515    1
  1326  1514  1516    1
  1327  1514  1517    1
  1328  1515  1518    1
  1329  1515  1519    1
  1330  1515  1520    1
  1331  1521  1522    1
  1332  1522  1523    1
  1333  1522  1524    1
  1334  1522  1525    1
  1335  1523  1526    1
  1336  1523  1527    1
  1337  1523  1528    1
  1338  1529  1530    1
  1339  1530  1531    1
  1340  1530  1532    1
  1341  1530  1533    1
  1342  1531  1534    1
  1343  1531  1535    1
  1344  1531  1536    1
  1345  1537  1538    1
  1346  1538  1539    1
  1347  1538  1540    1
  1348  1538  1541    1
  1349  1539  1542    1
  1350  1539  1543    1
  1351  1539  1544    1
  1352  1545  1546    1
  1353  1546  1547    1
  1354  1546  1548    1
  1355  1546  1549    1
  1356  1547  1550    1
  1357  1547  1551    1
  1358  1547  1552    1
  1359  1553  1554    1
  1360  1554  1555    1
  1361  1554  1556    1
  1362  1554  1557    1
  1363  1555  1558    1
  1364  1555  1559    1
  1365  1555  1560    1
  1366  1561  1562    1
  1367  1562  1563    1
  1368  1562  1564    1
  1369  1562  1565    1
  1370  1563  1566    1
  1371  1563  1567    1
  1372  1563  1568    1
  1373  1569  1570    1
  1374  1570  1571    1
  1375  1570  1572    1
  1376  1570  1573    1
  1377  1571  1574    1
  1378  1571  1575    1
  1379  1571  1576    1
  1380  1577  1578    1
  1381  1578  1579    1
  1382  1578  1580    1
  1383  1578  1581    1
  1384  1579  1582    1
  1385  1579  1583    1
  1386  1579  1584    1
  1387  1585  1586    1
  1388  1586  1587    1
  1389  1586  1588    1
  1390  1586  1589    1
  1391  1587  1590    1
  1392  1587  1591    1
  1393  1587  1592    1
  1394  1593  1594    1
  1395  1594  1595    1
  1396  1594  1596    1
  1397  1594  1597    1
  1398  1595  1598    1
  1399  1595  1599    1
  1400  1595  1600    1
  1401  1601  1602    1
  1402  1602  1603    1
  1403  1602  1604    1
  1404  1602  1605    1
  1405  1603  1606    1
  1406  1603  1607    1
  1407  1603  1608    1
  1408  1609  1610    1
  1409  1610  1611    1
  1410  1610  1612    1
  1411  1610  1613    1
  1412  1611  1614    1
  1413  1611  1615    1
  1414  1611  1616    1
  1415  1617  1618    1
  1416  1618  1619    1
  1417  1618  1620    1
  1418  1618  1621    1
  1419  1619  1622    1
  1420  1619  1623    1
  1421  1619  1624    1
  1422  1625  1626    1
  1423  1626  1627    1
  1424  1626  1628    1
  1425  1626  1629    1
  1426  1627  1630    1
  1427  1627  1631    1
  1428  1627  1632    1
  1429  1633  1634    1
  1430  1634  1635    1
  1431  1634  1636    1
  1432  1634  1637    1
  1433  1635  1638    1
  1434  1635  1639    1
  1435  1635  1640    1
  1436  1641  1642    1
  1437  1642  1643    1
  1438  1642  1644    1
  1439  1642  1645    1
  1440  1643  1646    1
  1441  1643  1647    1
  1442  1643  1648    1
  1443  1649  1650    1
  1444  1650  1651    1
  1445  1650  1652    1
  1446  1650  1653    1
  1447  1651  1654    1
  1448  1651  1655    1
  1449  1651  1656    1
  1450  1657  1658    1
  1451  1658  1659    1
  1452  1658  1660    1
  1453  1658  1661    1
  1454  1659  1662    1
  1455  1659  1663    1
  1456  1659  1664    1
  1457  1665  1666    1
  1458  1666  1667    1
  1459  1666  1668    1
  1460  1666  1669    1
  1461  1667  1670    1
  1462  1667  1671    1
  1463  1667  1672    1
  1464  1673  1674    1
  1465  1674  1675    1
  1466  1674  1676    1
  1467  1674  1677    1
  1468  1675  1678    1
  1469  1675  1679    1
  1470  1675  1680    1
  1471  1681  1682    1
  1472  1682  1683    1
  1473  1682  1684    1
  1474  1682  1685    1
  1475  1683  1686    1
  1476  1683  1687    1
  1477  1683  1688    1
  1478  1689  1690    1
  1479  1690  1691    1
  1480  1690  1692    1
  1481  1690  1693    1
  1482  1691  1694    1
  1483  1691  1695    1
  1484  1691  1696    1
  1485  1697  1698    1
  1486  1698  1699    1
  1487  1698  1700    1
  1488  1698  1701    1
  1489  1699  1702    1
  1490  1699  1703    1
  1491  1699  1704    1
  1492  1705  1706    1
  1493  1706  1707    1
  1494  1706  1708    1
  1495  1706  1709    1
  1496  1707  1710    1
  1497  1707  1711    1
  1498  1707  1712    1
  1499  1713  1714    1
  1500  1714  1715    1
  1501  1714  1716    1
  1502  1714  1717    1
  1503  1715  1718    1
  1504  1715  1719    1
  1505  1715  1720    1
  1506  1721  1722    1
  1507  1722  1723    1
  1508  1722  1724    1
  1509  1722  1725    1
  1510  1723  1726    1
  1511  1723  1727    1
  1512  1723  1728    1
  1513  1729  1730    1
  1514  1730  1731    1
  1515  1730  1732    1
  1516  1730  1733    1
  1517  1731  1734    1
  1518  1731  1735    1
  1519  1731  1736    1
  1520  1737  1738    1
  1521  1738  1739    1
  1522  1738  1740    1
  1523  1738  1741    1
  1524  1739  1742    1
  1525  1739  1743    1
  1526  1739  1744    1
  1527  1745  1746    1
  1528  1746  1747    1
  1529  1746  1748    1
  1530  1746  1749    1
  1531  1747  1750    1
  1532  1747  1751    1
  1533  1747  1752    1
  1534  1753  1754    1
  1535  1754  1755    1
  1536  1754  1756    1
  1537  1754  1757    1
  1538  1755  1758    1
  1539  1755  1759    1
  1540  1755  1760    1
  1541  1761  1762    1
  1542  1762  1763    1
  1543  1762  1764    1
  1544  1762  1765    1
  1545  1763  1766    1
  1546  1763  1767    1
  1547  1763  1768    1
  1548  1769  1770    1
  1549  1770  1771    1
  1550  1770  1772    1
  1551  1770  1773    1
  1552  1771  1774    1
  1553  1771  1775    1
  1554  1771  1776    1
  1555  1777  1778    1
  1556  1778  1779    1
  1557  1778  1780    1
  1558  1778  1781    1
  1559  1779  1782    1
  1560  1779  1783    1
  1561  1779  1784    1
  1562  1785  1786    1
  1563  1786  1787    1
  1564  1786  1788    1
  1565  1786  1789    1
  1566  1787  1790    1
  1567  1787  1791    1
  1568  1787  1792    1
  1569  1793  1794    1
  1570  1794  1795    1
  1571  1794  1796    1
  1572  1794  1797    1
  1573  1795  1798    1
  1574  1795  1799    1
  1575  1795  1800    1
  1576  1801  1802    1
  1577  1802  1803    1
  1578  1802  1804    1
  1579  1802  1805    1
  1580  1803  1806    1
  1581  1803  1807    1
  1582  1803  1808    1
  1583  1809  1810    1
  1584  1810  1811    1
  1585  1810  1812    1
  1586  1810  1813    1
  1587  1811  1814    1
  1588  1811  1815    1
  1589  1811  1816    1
  1590  1817  1818    1
  1591  1818  1819    1
  1592  1818  1820    1
  1593  1818  1821    1
  1594  1819  1822    1
  1595  1819  1823    1
  1596  1819  1824    1
  1597  1825  1826    1
  1598  1826  1827    1
  1599  1826  1828    1
  1600  1826  1829    1
  1601  1827  1830    1
  1602  1827  1831    1
  1603  1827  1832    1
  1604  1833  1834    1
  1605  1834  1835    1
  1606  1834  1836    1
  1607  1834  1837    1
  1608  1835  1838    1
  1609  1835  1839    1
  1610  1835  1840    1
  1611  1841  1842    1
  1612  1842  1843    1
  1613  1842  1844    1
  1614  1842  1845    1
  1615  1843  1846    1
  1616  1843  1847    1
  1617  1843  1848    1
  1618  1849  1850    1
  1619  1850  1851    1
  1620  1850  1852    1
  1621  1850  1853    1
  1622  1851  1854    1
  1623  1851  1855    1
  1624  1851  1856    1
  1625  1857  1858    1
  1626  1858  1859    1
  1627  1858  1860    1
  1628  1858  1861    1
  1629  1859  1862    1
  1630  1859  1863    1
  1631  1859  1864    1
  1632  1865  1866    1
  1633  1866  1867    1
  1634  1866  1868    1
  1635  1866  1869    1
  1636  1867  1870    1
  1637  1867  1871    1
  1638  1867  1872    1
  1639  1873  1874    1
  1640  1874  1875    1
  1641  1874  1876    1
  1642  1874  1877    1
  1643  1875  1878    1
  1644  1875  1879    1
  1645  1875  1880    1
  1646  1881  1882    1
  1647  1882  1883    1
  1648  1882  1884    1
  1649  1882  1885    1
  1650  1883  1886    1
  1651  1883  1887    1
  1652  1883  1888    1
  1653  1889  1890    1
  1654  1890  1891    1
  1655  1890  1892    1
  1656  1890  1893    1
  1657  1891  1894    1
  1658  1891  1895    1
  1659  1891  1896    1
  1660  1897  1898    1
  1661  1898  1899    1
  1662  1898  1900    1
  1663  1898  1901    1
  1664  1899  1902    1
  1665  1899  1903    1
  1666  1899  1904    1
  1667  1905  1906    1
  1668  1906  1907    1
  1669  1906  1908    1
  1670  1906  1909    1
  1671  1907  1910    1
  1672  1907  1911    1
  1673  1907  1912    1
  1674  1913  1914    1
  1675  1914  1915    1
  1676  1914  1916    1
  1677  1914  1917    1
  1678  1915  1918    1
  1679  1915  1919    1
  1680  1915  1920    1
  1681  1921  1922    1
  1682  1922  1923    1
  1683  1922  1924    1
  1684  1922  1925    1
  1685  1923  1926    1
  1686  1923  1927    1
  1687  1923  1928    1
  1688  1929  1930    1
  1689  1930  1931    1
  1690  1930  1932    1
  1691  1930  1933    1
  1692  1931  1934    1
  1693  1931  1935    1
  1694  1931  1936    1
  1695  1937  1938    1
  1696  1938  1939    1
  1697  1938  1940    1
  1698  1938  1941    1
  1699  1939  1942    1
  1700  1939  1943    1
  1701  1939  1944    1
  1702  1945  1946    1
  1703  1946  1947    1
  1704  1946  1948    1
  1705  1946  1949    1
  1706  1947  1950    1
  1707  1947  1951    1
  1708  1947  1952    1
  1709  1953  1954    1
  1710  1954  1955    1
  1711  1954  1956    1
  1712  1954  1957    1
  1713  1955  1958    1
  1714  1955  1959    1
  1715  1955  1960    1
  1716  1961  1962    1
  1717  1962  1963    1
  1718  1962  1964    1
  1719  1962  1965    1
  1720  1963  1966    1
  1721  1963  1967    1
  1722  1963  1968    1
  1723  1969  1970    1
  1724  1970  1971    1
  1725  1970  1972    1
  1726  1970  1973    1
  1727  1971  1974    1
  1728  1971  1975    1
  1729  1971  1976    1
  1730  1977  1978    1
  1731  1978  1979    1
  1732  1978  1980    1
  1733  1978  1981    1
  1734  1979  1982    1
  1735  1979  1983    1
  1736  1979  1984    1
  1737  1985  1986    1
  1738  1986  1987    1
  1739  1986  1988    1
  1740  1986  1989    1
  1741  1987  1990    1
  1742  1987  1991    1
  1743  1987  1992    1
  1744  1993  1994    1
  1745  1994  1995    1
  1746  1994  1996    1
  1747  1994  1997    1
  1748  1995  1998    1
  1749  1995  1999    1
  1750  1995  2000    1
  1751  2001  2002    1
  1752  2002  2003    1
  1753  2002  2004    1
  1754  2002  2005    1
  1755  2003  2006    1
  1756  2003  2007    1
  1757  2003  2008    1
  1758  2009  2010    1
  1759  2010  2011    1
  1760  2010  2012    1
  1761  2010  2013    1
  1762  2011  2014    1
  1763  2011  2015    1
  1764  2011  2016    1
  1765  2017  2018    1
  1766  2018  2019    1
  1767  2018  2020    1
  1768  2018  2021    1
  1769  2019  2022    1
  1770  2019  2023    1
  1771  2019  2024    1
  1772  2025  2026    1
  1773  2026  2027    1
  1774  2026  2028    1
  1775  2026  2029    1
  1776  2027  2030    1
  1777  2027  2031    1
  1778  2027  2032    1
  1779  2033  2034    1
  1780  2034  2035    1
  1781  2034  2036    1
  1782  2034  2037    1
  1783  2035  2038    1
  1784  2035  2039    1
  1785  2035  2040    1
  1786  2041  2042    1
  1787  2042  2043    1
  1788  2042  2044    1
  1789  2042  2045    1
  1790  2043  2046    1
  1791  2043  2047    1
  1792  2043  2048    1
  1793  2049  2050    1
  1794  2050  2051    1
  1795  2050  2052    1
  1796  2050  2053    1
  1797  2051  2054    1
  1798  2051  2055    1
  1799  2051  2056    1
  1800  2057  2058    1
  1801  2058  2059    1
  1802  2058  2060    1
  1803  2058  2061    1
  1804  2059  2062    1
  1805  2059  2063    1
  1806  2059  2064    1
  1807  2065  2066    1
  1808  2066  2067    1
  1809  2066  2068    1
  1810  2066  2069    1
  1811  2067  2070    1
  1812  2067  2071    1
  1813  2067  2072    1
  1814  2073  2074    1
  1815  2074  2075    1
  1816  2074  2076    1
  1817  2074  2077    1
  1818  2075  2078    1
  1819  2075  2079    1
  1820  2075  2080    1
  1821  2081  2082    1
  1822  2082  2083    1
  1823  2082  2084    1
  1824  2082  2085    1
  1825  2083  2086    1
  1826  2083  2087    1
  1827  2083  2088    1
  1828  2089  2090    1
  1829  2090  2091    1
  1830  2090  2092    1
  1831  2090  2093    1
  1832  2091  2094    1
  1833  2091  2095    1
  1834  2091  2096    1
  1835  2097  2098    1
  1836  2098  2099    1
  1837  2098  2100    1
  1838  2098  2101    1
  1839  2099  2102    1
  1840  2099  2103    1
  1841  2099  2104    1
  1842  2105  2106    1
  1843  2106  2107    1
  1844  2106  2108    1
  1845  2106  2109    1
  1846  2107  2110    1
  1847  2107  2111    1
  1848  2107  2112    1
  1849  2113  2114    1
  1850  2114  2115    1
  1851  2114  2116    1
  1852  2114  2117    1
  1853  2115  2118    1
  1854  2115  2119    1
  1855  2115  2120    1
  1856  2121  2122    1
  1857  2122  2123    1
  1858  2122  2124    1
  1859  2122  2125    1
  1860  2123  2126    1
  1861  2123  2127    1
  1862  2123  2128    1
  1863  2129  2130    1
  1864  2130  2131    1
  1865  2130  2132    1
  1866  2130  2133    1
  1867  2131  2134    1
  1868  2131  2135    1
  1869  2131  2136    1
  1870  2137  2138    1
  1871  2138  2139    1
  1872  2138  2140    1
  1873  2138  2141    1
  1874  2139  2142    1
  1875  2139  2143    1
  1876  2139  2144    1
  1877  2145  2146    1
  1878  2146  2147    1
  1879  2146  2148    1
  1880  2146  2149    1
  1881  2147  2150    1
  1882  2147  2151    1
  1883  2147  2152    1
  1884  2153  2154    1
  1885  2154  2155    1
  1886  2154  2156    1
  1887  2154  2157    1
  1888  2155  2158    1
  1889  2155  2159    1
  1890  2155  2160    1
  1891  2161  2162    1
  1892  2162  2163    1
  1893  2162  2164    1
  1894  2162  2165    1
  1895  2163  2166    1
  1896  2163  2167    1
  1897  2163  2168    1
  1898  2169  2170    1
  1899  2170  2171    1
  1900  2170  2172    1
  1901  2170  2173    1
  1902  2171  2174    1
  1903  2171  2175    1
  1904  2171  2176    1
  1905  2177  2178    1
  1906  2178  2179    1
  1907  2178  2180    1
  1908  2178  2181    1
  1909  2179  2182    1
  1910  2179  2183    1
  1911  2179  2184    1
  1912  2185  2186    1
  1913  2186  2187    1
  1914  2186  2188    1
  1915  2186  2189    1
  1916  2187  2190    1
  1917  2187  2191    1
  1918  2187  2192    1
  1919  2193  2194    1
  1920  2194  2195    1
  1921  2194  2196    1
  1922  2194  2197    1
  1923  2195  2198    1
  1924  2195  2199    1
  1925  2195  2200    1
  1926  2201  2202    1
  1927  2202  2203    1
  1928  2202  2204    1
  1929  2202  2205    1
  1930  2203  2206    1
  1931  2203  2207    1
  1932  2203  2208    1
  1933  2209  2210    1
  1934  2210  2211    1
  1935  2210  2212    1
  1936  2210  2213    1
  1937  2211  2214    1
  1938  2211  2215    1
  1939  2211  2216    1
  1940  2217  2218    1
  1941  2218  2219    1
  1942  2218  2220    1
  1943  2218  2221    1
  1944  2219  2222    1
  1945  2219  2223    1
  1946  2219  2224    1
  1947  2225  2226    1
  1948  2226  2227    1
  1949  2226  2228    1
  1950  2226  2229    1
  1951  2227  2230    1
  1952  2227  2231    1
  1953  2227  2232    1
  1954  2233  2234    1
  1955  2234  2235    1
  1956  2234  2236    1
  1957  2234  2237    1
  1958  2235  2238    1
  1959  2235  2239    1
  1960  2235  2240    1
  1961  2241  2242    1
  1962  2242  2243    1
  1963  2242  2244    1
  1964  2242  2245    1
  1965  2243  2246    1
  1966  2243  2247    1
  1967  2243  2248    1
  1968  2249  2250    1
  1969  2250  2251    1
  1970  2250  2252    1
  1971  2250  2253    1
  1972  2251  2254    1
  1973  2251  2255    1
  1974  2251  2256    1
  1975  2257  2258    1
  1976  2258  2259    1
  1977  2258  2260    1
  1978  2258  2261    1
  1979  2259  2262    1
  1980  2259  2263    1
  1981  2259  2264    1
  1982  2265  2266    1
  1983  2266  2267    1
  1984  2266  2268    1
  1985  2266  2269    1
  1986  2267  2270    1
  1987  2267  2271    1
  1988  2267  2272    1
  1989  2273  2274    1
  1990  2274  2275    1
  1991  2274  2276    1
  1992  2274  2277    1
  1993  2275  2278    1
  1994  2275  2279    1
  1995  2275  2280    1
  1996  2281  2282    1
  1997  2282  2283    1
  1998  2282  2284    1
  1999  2282  2285    1
  2000  2283  2286    1
  2001  2283  2287    1
  2002  2283  2288    1
  2003  2289  2290    1
  2004  2290  2291    1
  2005  2290  2292    1
  2006  2290  2293    1
  2007  2291  2294    1
  2008  2291  2295    1
  2009  2291  2296    1
  2010  2297  2298    1
  2011  2298  2299    1
  2012  2298  2300    1
  2013  2298  2301    1
  2014  2299  2302    1
  2015  2299  2303    1
  2016  2299  2304    1
  2017  2305  2306    1
  2018  2306  2307    1
  2019  2306  2308    1
  2020  2306  2309    1
  2021  2307  2310    1
  2022  2307  2311    1
  2023  2307  2312    1
  2024  2313  2314    1
  2025  2314  2315    1
  2026  2314  2316    1
  2027  2314  2317    1
  2028  2315  2318    1
  2029  2315  2319    1
  2030  2315  2320    1
  2031  2321  2322    1
  2032  2322  2323    1
  2033  2322  2324    1
  2034  2322  2325    1
  2035  2323  2326    1
  2036  2323  2327    1
  2037  2323  2328    1
  2038  2329  2330    1
  2039  2330  2331    1
  2040  2330  2332    1
  2041  2330  2333    1
  2042  2331  2334    1
  2043  2331  2335    1
  2044  2331  2336    1
  2045  2337  2338    1
  2046  2338  2339    1
  2047  2338  2340    1
  2048  2338  2341    1
  2049  2339  2342    1
  2050  2339  2343    1
  2051  2339  2344    1
  2052  2345  2346    1
  2053  2346  2347    1
  2054  2346  2348    1
  2055  2346  2349    1
  2056  2347  2350    1
  2057  2347  2351    1
  2058  2347  2352    1
  2059  2353  2354    1
  2060  2354  2355    1
  2061  2354  2356    1
  2062  2354  2357    1
  2063  2355  2358    1
  2064  2355  2359    1
  2065  2355  2360    1
  2066  2361  2362    1
  2067  2362  2363    1
  2068  2362  2364    1
  2069  2362  2365    1
  2070  2363  2366    1
  2071  2363  2367    1
  2072  2363  2368    1
  2073  2369  2370    1
  2074  2370  2371    1
  2075  2370  2372    1
  2076  2370  2373    1
  2077  2371  2374    1
  2078  2371  2375    1
  2079  2371  2376    1
  2080  2377  2378    1
  2081  2378  2379    1
  2082  2378  2380    1
  2083  2378  2381    1
  2084  2379  2382    1
  2085  2379  2383    1
  2086  2379  2384    1
  2087  2385  2386    1
  2088  2386  2387    1
  2089  2386  2388    1
  2090  2386  2389    1
  2091  2387  2390    1
  2092  2387  2391    1
  2093  2387  2392    1
  2094  2393  2394    1
  2095  2394  2395    1
  2096  2394  2396    1
  2097  2394  2397    1
  2098  2395  2398    1
  2099  2395  2399    1
  2100  2395  2400    1
  2101  2401  2402    1
  2102  2402  2403    1
  2103  2402  2404    1
  2104  2402  2405    1
  2105  2403  2406    1
  2106  2403  2407    1
  2107  2403  2408    1
  2108  2409  2410    1
  2109  2410  2411    1
  2110  2410  2412    1
  2111  2410  2413    1
  2112  2411  2414    1
  2113  2411  2415    1
  2114  2411  2416    1
  2115  2417  2418    1
  2116  2418  2419    1
  2117  2418  2420    1
  2118  2418  2421    1
  2119  2419  2422    1
  2120  2419  2423    1
  2121  2419  2424    1
  2122  2425  2426    1
  2123  2426  2427    1
  2124  2426  2428    1
  2125  2426  2429    1
  2126  2427  2430    1
  2127  2427  2431    1
  2128  2427  2432    1
  2129  2433  2434    1
  2130  2434  2435    1
  2131  2434  2436    1
  2132  2434  2437    1
  2133  2435  2438    1
  2134  2435  2439    1
  2135  2435  2440    1
  2136  2441  2442    1
  2137  2442  2443    1
  2138  2442  2444    1
  2139  2442  2445    1
  2140  2443  2446    1
  2141  2443  2447    1
  2142  2443  2448    1
  2143  2449  2450    1
  2144  2450  2451    1
  2145  2450  2452    1
  2146  2450  2453    1
  2147  2451  2454    1
  2148  2451  2455    1
  2149  2451  2456    1
  2150  2457  2458    1
  2151  2458  2459    1
  2152  2458  2460    1
  2153  2458  2461    1
  2154  2459  2462    1
  2155  2459  2463    1
  2156  2459  2464    1
  2157  2465  2466    1
  2158  2466  2467    1
  2159  2466  2468    1
  2160  2466  2469    1
  2161  2467  2470    1
  2162  2467  2471    1
  2163  2467  2472    1
  2164  2473  2474    1
  2165  2474  2475    1
  2166  2474  2476    1
  2167  2474  2477    1
  2168  2475  2478    1
  2169  2475  2479    1
  2170  2475  2480    1
  2171  2481  2482    1
  2172  2482  2483    1
  2173  2482  2484    1
  2174  2482  2485    1
  2175  2483  2486    1
  2176  2483  2487    1
  2177  2483  2488    1
  2178  2489  2490    1
  2179  2490  2491    1
  2180  2490  2492    1
  2181  2490  2493    1
  2182  2491  2494    1
  2183  2491  2495    1
  2184  2491  2496    1
  2185  2497  2498    1
  2186  2498  2499    1
  2187  2498  2500    1
  2188  2498  2501    1
  2189  2499  2502    1
  2190  2499  2503    1
  2191  2499  2504    1
  2192  2505  2506    1
  2193  2506  2507    1
  2194  2506  2508    1
  2195  2506  2509    1
  2196  2507  2510    1
  2197  2507  2511    1
  2198  2507  2512    1
  2199  2513  2514    1
  2200  2514  2515    1
  2201  2514  2516    1
  2202  2514  2517    1
  2203  2515  2518    1
  2204  2515  2519    1
  2205  2515  2520    1
  2206  2521  2522    1
  2207  2522  2523    1
  2208  2522  2524    1
  2209  2522  2525    1
  2210  2523  2526    1
  2211  2523  2527    1
  2212  2523  2528    1
  2213  2529  2530    1
  2214  2530  2531    1
  2215  2530  2532    1
  2216  2530  2533    1
  2217  2531  2534    1
  2218  2531  2535    1
  2219  2531  2536    1
  2220  2537  2538    1
  2221  2538  2539    1
  2222  2538  2540    1
  2223  2538  2541    1
  2224  2539  2542    1
  2225  2539  2543    1
  2226  2539  2544    1
  2227  2545  2546    1
  2228  2546  2547    1
  2229  2546  2548    1
  2230  2546  2549    1
  2231  2547  2550    1
  2232  2547  2551    1
  2233  2547  2552    1
  2234  2553  2554    1
  2235  2554  2555    1
  2236  2554  2556    1
  2237  2554  2557    1
  2238  2555  2558    1
  2239  2555  2559    1
  2240  2555  2560    1
  2241  2561  2562    1
  2242  2562  2563    1
  2243  2562  2564    1
  2244  2562  2565    1
  2245  2563  2566    1
  2246  2563  2567    1
  2247  2563  2568    1
  2248  2569  2570    1
  2249  2570  2571    1
  2250  2570  2572    1
  2251  2570  2573    1
  2252  2571  2574    1
  2253  2571  2575    1
  2254  2571  2576    1
  2255  2577  2578    1
  2256  2578  2579    1
  2257  2578  2580    1
  2258  2578  2581    1
  2259  2579  2582    1
  2260  2579  2583    1
  2261  2579  2584    1
  2262  2585  2586    1
  2263  2586  2587    1
  2264  2586  2588    1
  2265  2586  2589    1
  2266  2587  2590    1
  2267  2587  2591    1
  2268  2587  2592    1
  2269  2593  2594    1
  2270  2594  2595    1
  2271  2594  2596    1
  2272  2594  2597    1
  2273  2595  2598    1
  2274  2595  2599    1
  2275  2595  2600    1
  2276  2601  2602    1
  2277  2602  2603    1
  2278  2602  2604    1
  2279  2602  2605    1
  2280  2603  2606    1
  2281  2603  2607    1
  2282  2603  2608    1
  2283  2609  2610    1
  2284  2610  2611    1
  2285  2610  2612    1
  2286  2610  2613    1
  2287  2611  2614    1
  2288  2611  2615    1
  2289  2611  2616    1
  2290  2617  2618    1
  2291  2618  2619    1
  2292  2618  2620    1
  2293  2618  2621    1
  2294  2619  2622    1
  2295  2619  2623    1
  2296  2619  2624    1
  2297  2625  2626    1
  2298  2626  2627    1
  2299  2626  2628    1
  2300  2626  2629    1
  2301  2627  2630    1
  2302  2627  2631    1
  2303  2627  2632    1
  2304  2633  2634    1
  2305  2634  2635    1
  2306  2634  2636    1
  2307  2634  2637    1
  2308  2635  2638    1
  2309  2635  2639    1
  2310  2635  2640    1
  2311  2641  2642    1
  2312  2642  2643    1
  2313  2642  2644    1
  2314  2642  2645    1
  2315  2643  2646    1
  2316  2643  2647    1
  2317  2643  2648    1
  2318  2649  2650    1
  2319  2650  2651    1
  2320  2650  2652    1
  2321  2650  2653    1
  2322  2651  2654    1
  2323  2651  2655    1
  2324  2651  2656    1
  2325  2657  2658    1
  2326  2658  2659    1
  2327  2658  2660    1
  2328  2658  2661    1
  2329  2659  2662    1
  2330  2659  2663    1
  2331  2659  2664    1
  2332  2665  2666    1
  2333  2666  2667    1
  2334  2666  2668    1
  2335  2666  2669    1
  2336  2667  2670    1
  2337  2667  2671    1
  2338  2667  2672    1
  2339  2673  2674    1
  2340  2674  2675    1
  2341  2674  2676    1
  2342  2674  2677    1
  2343  2675  2678    1
  2344  2675  2679    1
  2345  2675  2680    1
  2346  2681  2682    1
  2347  2682  2683    1
  2348  2682  2684    1
  2349  2682  2685    1
  2350  2683  2686    1
  2351  2683  2687    1
  2352  2683  2688    1
  2353  2689  2690    1
  2354  2690  2691    1
  2355  2690  2692    1
  2356  2690  2693    1
  2357  2691  2694    1
  2358  2691  2695    1
  2359  2691  2696    1
  2360  2697  2698    1
  2361  2698  2699    1
  2362  2698  2700    1
  2363  2698  2701    1
  2364  2699  2702    1
  2365  2699  2703    1
  2366  2699  2704    1
  2367  2705  2706    1
  2368  2706  2707    1
  2369  2706  2708    1
  2370  2706  2709    1
  2371  2707  2710    1
  2372  2707  2711    1
  2373  2707  2712    1
  2374  2713  2714    1
  2375  2714  2715    1
  2376  2714  2716    1
  2377  2714  2717    1
  2378  2715  2718    1
  2379  2715  2719    1
  2380  2715  2720    1
  2381  2721  2722    1
  2382  2722  2723    1
  2383  2722  2724    1
  2384  2722  2725    1
  2385  2723  2726    1
  2386  2723  2727    1
  2387  2723  2728    1
  2388  2729  2730    1
  2389  2730  2731    1
  2390  2730  2732    1
  2391  2730  2733    1
  2392  2731  2734    1
  2393  2731  2735    1
  2394  2731  2736    1
  2395  2737  2738    1
  2396  2738  2739    1
  2397  2738  2740    1
  2398  2738  2741    1
  2399  2739  2742    1
  2400  2739  2743    1
  2401  2739  2744    1
  2402  2745  2746    1
  2403  2746  2747    1
  2404  2746  2748    1
  2405  2746  2749    1
  2406  2747  2750    1
  2407  2747  2751    1
  2408  2747  2752    1
  2409  2753  2754    1
  2410  2754  2755    1
  2411  2754  2756    1
  2412  2754  2757    1
  2413  2755  2758    1
  2414  2755  2759    1
  2415  2755  2760    1
  2416  2761  2762    1
  2417  2762  2763    1
  2418  2762  2764    1
  2419  2762  2765    1
  2420  2763  2766    1
  2421  2763  2767    1
  2422  2763  2768    1
  2423  2769  2770    1
  2424  2770  2771    1
  2425  2770  2772    1
  2426  2770  2773    1
  2427  2771  2774    1
  2428  2771  2775    1
  2429  2771  2776    1
  2430  2777  2778    1
  2431  2778  2779    1
  2432  2778  2780    1
  2433  2778  2781    1
  2434  2779  2782    1
  2435  2779  2783    1
  2436  2779  2784    1
  2437  2785  2786    1
  2438  2786  2787    1
  2439  2786  2788    1
  2440  2786  2789    1
  2441  2787  2790    1
  2442  2787  2791    1
  2443  2787  2792    1
  2444  2793  2794    1
  2445  2794  2795    1
  2446  2794  2796    1
  2447  2794  2797    1
  2448  2795  2798    1
  2449  2795  2799    1
  2450  2795  2800    1
  2451  2801  2802    1
  2452  2802  2803    1
  2453  2802  2804    1
  2454  2802  2805    1
  2455  2803  2806    1
  2456  2803  2807    1
  2457  2803  2808    1
  2458  2809  2810    1
  2459  2810  2811    1
  2460  2810  2812    1
  2461  2810  2813    1
  2462  2811  2814    1
  2463  2811  2815    1
  2464  2811  2816    1
  2465  2817  2818    1
  2466  2818  2819    1
  2467  2818  2820    1
  2468  2818  2821    1
  2469  2819  2822    1
  2470  2819  2823    1
  2471  2819  2824    1
  2472  2825  2826    1
  2473  2826  2827    1
  2474  2826  2828    1
  2475  2826  2829    1
  2476  2827  2830    1
  2477  2827  2831    1
  2478  2827  2832    1
  2479  2833  2834    1
  2480  2834  2835    1
  2481  2834  2836    1
  2482  2834  2837    1
  2483  2835  2838    1
  2484  2835  2839    1
  2485  2835  2840    1
  2486  2841  2842    1
  2487  2842  2843    1
  2488  2842  2844    1
  2489  2842  2845    1
  2490  2843  2846    1
  2491  2843  2847    1
  2492  2843  2848    1
  2493  2849  2850    1
  2494  2850  2851    1
  2495  2850  2852    1
  2496  2850  2853    1
  2497  2851  2854    1
  2498  2851  2855    1
  2499  2851  2856    1
  2500  2857  2858    1
  2501  2858  2859    1
  2502  2858  2860    1
  2503  2858  2861    1
  2504  2859  2862    1
  2505  2859  2863    1
  2506  2859  2864    1
  2507  2865  2866    1
  2508  2866  2867    1
  2509  2866  2868    1
  2510  2866  2869    1
  2511  2867  2870    1
  2512  2867  2871    1
  2513  2867  2872    1
  2514  2873  2874    1
  2515  2874  2875    1
  2516  2874  2876    1
  2517  2874  2877    1
  2518  2875  2878    1
  2519  2875  2879    1
  2520  2875  2880    1
  2521  2881  2882    1
  2522  2882  2883    1
  2523  2882  2884    1
  2524  2882  2885    1
  2525  2883  2886    1
  2526  2883  2887    1
  2527  2883  2888    1
  2528  2889  2890    1
  2529  2890  2891    1
  2530  2890  2892    1
  2531  2890  2893    1
  2532  2891  2894    1
  2533  2891  2895    1
  2534  2891  2896    1
  2535  2897  2898    1
  2536  2898  2899    1
  2537  2898  2900    1
  2538  2898  2901    1
  2539  2899  2902    1
  2540  2899  2903    1
  2541  2899  2904    1
  2542  2905  2906    1
  2543  2906  2907    1
  2544  2906  2908    1
  2545  2906  2909    1
  2546  2907  2910    1
  2547  2907  2911    1
  2548  2907  2912    1
  2549  2913  2914    1
  2550  2914  2915    1
  2551  2914  2916    1
  2552  2914  2917    1
  2553  2915  2918    1
  2554  2915  2919    1
  2555  2915  2920    1
  2556  2921  2922    1
  2557  2922  2923    1
  2558  2922  2924    1
  2559  2922  2925    1
  2560  2923  2926    1
  2561  2923  2927    1
  2562  2923  2928    1
  2563  2929  2930    1
  2564  2930  2931    1
  2565  2930  2932    1
  2566  2930  2933    1
  2567  2931  2934    1
  2568  2931  2935    1
  2569  2931  2936    1
  2570  2937  2938    1
  2571  2938  2939    1
  2572  2938  2940    1
  2573  2938  2941    1
  2574  2939  2942    1
  2575  2939  2943    1
  2576  2939  2944    1
  2577  2945  2946    1
  2578  2946  2947    1
  2579  2946  2948    1
  2580  2946  2949    1
  2581  2947  2950    1
  2582  2947  2951    1
  2583  2947  2952    1
  2584  2953  2954    1
  2585  2954  2955    1
  2586  2954  2956    1
  2587  2954  2957    1
  2588  2955  2958    1
  2589  2955  2959    1
  2590  2955  2960    1
  2591  2961  2962    1
  2592  2962  2963    1
  2593  2962  2964    1
  2594  2962  2965    1
  2595  2963  2966    1
  2596  2963  2967    1
  2597  2963  2968    1
  2598  2969  2970    1
  2599  2970  2971    1
  2600  2970  2972    1
  2601  2970  2973    1
  2602  2971  2974    1
  2603  2971  2975    1
  2604  2971  2976    1
  2605  2977  2978    1
  2606  2978  2979    1
  2607  2978  2980    1
  2608  2978  2981    1
  2609  2979  2982    1
  2610  2979  2983    1
  2611  2979  2984    1
  2612  2985  2986    1
  2613  2986  2987    1
  2614  2986  2988    1
  2615  2986  2989    1
  2616  2987  2990    1
  2617  2987  2991    1
  2618  2987  2992    1
  2619  2993  2994    1
  2620  2994  2995    1
  2621  2994  2996    1
  2622  2994  2997    1
  2623  2995  2998    1
  2624  2995  2999    1
  2625  2995  3000    1
  2626  3001  3002    1
  2627  3002  3003    1
  2628  3002  3004    1
  2629  3002  3005    1
  2630  3003  3006    1
  2631  3003  3007    1
  2632  3003  3008    1
  2633  3009  3010    1
  2634  3010  3011    1
  2635  3010  3012    1
  2636  3010  3013    1
  2637  3011  3014    1
  2638  3011  3015    1
  2639  3011  3016    1
  2640  3017  3018    1
  2641  3018  3019    1
  2642  3018  3020    1
  2643  3018  3021    1
  2644  3019  3022    1
  2645  3019  3023    1
  2646  3019  3024    1
  2647  3025  3026    1
  2648  3026  3027    1
  2649  3026  3028    1
  2650  3026  3029    1
  2651  3027  3030    1
  2652  3027  3031    1
  2653  3027  3032    1
  2654  3033  3034    1
  2655  3034  3035    1
  2656  3034  3036    1
  2657  3034  3037    1
  2658  3035  3038    1
  2659  3035  3039    1
  2660  3035  3040    1
  2661  3041  3042    1
  2662  3042  3043    1
  2663  3042  3044    1
  2664  3042  3045    1
  2665  3043  3046    1
  2666  3043  3047    1
  2667  3043  3048    1
  2668  3049  3050    1
  2669  3050  3051    1
  2670  3050  3052    1
  2671  3050  3053    1
  2672  3051  3054    1
  2673  3051  3055    1
  2674  3051  3056    1
  2675  3057  3058    1
  2676  3058  3059    1
  2677  3058  3060    1
  2678  3058  3061    1
  2679  3059  3062    1
  2680  3059  3063    1
  2681  3059  3064    1
  2682  3065  3066    1
  2683  3066  3067    1
  2684  3066  3068    1
  2685  3066  3069    1
  2686  3067  3070    1
  2687  3067  3071    1
  2688  3067  3072    1
  2689  3073  3074    1
  2690  3074  3075    1
  2691  3074  3076    1
  2692  3074  3077    1
  2693  3075  3078    1
  2694  3075  3079    1
  2695  3075  3080    1
  2696  3081  3082    1
  2697  3082  3083    1
  2698  3082  3084    1
  2699  3082  3085    1
  2700  3083  3086    1
  2701  3083  3087    1
  2702  3083  3088    1
  2703  3089  3090    1
  2704  3090  3091    1
  2705  3090  3092    1
  2706  3090  3093    1
  2707  3091  3094    1
  2708  3091  3095    1
  2709  3091  3096    1
  2710  3097  3098    1
  2711  3098  3099    1
  2712  3098  3100    1
  2713  3098  3101    1
  2714  3099  3102    1
  2715  3099  3103    1
  2716  3099  3104    1
  2717  3105  3106    1
  2718  3106  3107    1
  2719  3106  3108    1
  2720  3106  3109    1
  2721  3107  3110    1
  2722  3107  3111    1
  2723  3107  3112    1
  2724  3113  3114    1
  2725  3114  3115    1
  2726  3114  3116    1
  2727  3114  3117    1
  2728  3115  3118    1
  2729  3115  3119    1
  2730  3115  3120    1
  2731  3121  3122    1
  2732  3122  3123    1
  2733  3122  3124    1
  2734  3122  3125    1
  2735  3123  3126    1
  2736  3123  3127    1
  2737  3123  3128    1
  2738  3129  3130    1
  2739  3130  3131    1
  2740  3130  3132    1
  2741  3130  3133    1
  2742  3131  3134    1
  2743  3131  3135    1
  2744  3131  3136    1
  2745  3137  3138    1
  2746  3138  3139    1
  2747  3138  3140    1
  2748  3138  3141    1
  2749  3139  3142    1
  2750  3139  3143    1
  2751  3139  3144    1
  2752  3145  3146    1
  2753  3146  3147    1
  2754  3146  3148    1
  2755  3146  3149    1
  2756  3147  3150    1
  2757  3147  3151    1
  2758  3147  3152    1
  2759  3153  3154    1
  2760  3154  3155    1
  2761  3154  3156    1
  2762  3154  3157    1
  2763  3155  3158    1
  2764  3155  3159    1
  2765  3155  3160    1
  2766  3161  3162    1
  2767  3162  3163    1
  2768  3162  3164    1
  2769  3162  3165    1
  2770  3163  3166    1
  2771  3163  3167    1
  2772  3163  3168    1
  2773  3169  3170    1
  2774  3170  3171    1
  2775  3170  3172    1
  2776  3170  3173    1
  2777  3171  3174    1
  2778  3171  3175    1
  2779  3171  3176    1
  2780  3177  3178    1
  2781  3178  3179    1
  2782  3178  3180    1
  2783  3178  3181    1
  2784  3179  3182    1
  2785  3179  3183    1
  2786  3179  3184    1
  2787  3185  3186    1
  2788  3186  3187    1
  2789  3186  3188    1
  2790  3186  3189    1
  2791  3187  3190    1
  2792  3187  3191    1
  2793  3187  3192    1
  2794  3193  3194    1
  2795  3194  3195    1
  2796  3194  3196    1
  2797  3194  3197    1
  2798  3195  3198    1
  2799  3195  3199    1
  2800  3195  3200    1
  2801  3201  3202    1
  2802  3202  3203    1
  2803  3202  3204    1
  2804  3202  3205    1
  2805  3203  3206    1
  2806  3203  3207    1
  2807  3203  3208    1
  2808  3209  3210    1
  2809  3210  3211    1
  2810  3210  3212    1
  2811  3210  3213    1
  2812  3211  3214    1
  2813  3211  3215    1
  2814  3211  3216    1
  2815  3217  3218    1
  2816  3218  3219    1
  2817  3218  3220    1
  2818  3218  3221    1
  2819  3219  3222    1
  2820  3219  3223    1
  2821  3219  3224    1
  2822  3225  3226    1
  2823  3226  3227    1
  2824  3226  3228    1
  2825  3226  3229    1
  2826  3227  3230    1
  2827  3227  3231    1
  2828  3227  3232    1
  2829  3233  3234    1
  2830  3234  3235    1
  2831  3234  3236    1
  2832  3234  3237    1
  2833  3235  3238    1
  2834  3235  3239    1
  2835  3235  3240    1
  2836  3241  3242    1
  2837  3242  3243    1
  2838  3242  3244    1
  2839  3242  3245    1
  2840  3243  3246    1
  2841  3243  3247    1
  2842  3243  3248    1
  2843  3249  3250    1
  2844  3250  3251    1
  2845  3250  3252    1
  2846  3250  3253    1
  2847  3251  3254    1
  2848  3251  3255    1
  2849  3251  3256    1
  2850  3257  3258    1
  2851  3258  3259    1
  2852  3258  3260    1
  2853  3258  3261    1
  2854  3259  3262    1
  2855  3259  3263    1
  2856  3259  3264    1
  2857  3265  3266    1
  2858  3266  3267    1
  2859  3266  3268    1
  2860  3266  3269    1
  2861  3267  3270    1
  2862  3267  3271    1
  2863  3267  3272    1
  2864  3273  3274    1
  2865  3274  3275    1
  2866  3274  3276    1
  2867  3274  3277    1
  2868  3275  3278    1
  2869  3275  3279    1
  2870  3275  3280    1
  2871  3281  3282    1
  2872  3282  3283    1
  2873  3282  3284    1
  2874  3282  3285    1
  2875  3283  3286    1
  2876  3283  3287    1
  2877  3283  3288    1
  2878  3289  3290    1
  2879  3290  3291    1
  2880  3290  3292    1
  2881  3290  3293    1
  2882  3291  3294    1
  2883  3291  3295    1
  2884  3291  3296    1
  2885  3297  3298    1
  2886  3298  3299    1
  2887  3298  3300    1
  2888  3298  3301    1
  2889  3299  3302    1
  2890  3299  3303    1
  2891  3299  3304    1
  2892  3305  3306    1
  2893  3306  3307    1
  2894  3306  3308    1
  2895  3306  3309    1
  2896  3307  3310    1
  2897  3307  3311    1
  2898  3307  3312    1
  2899  3313  3314    1
  2900  3314  3315    1
  2901  3314  3316    1
  2902  3314  3317    1
  2903  3315  3318    1
  2904  3315  3319    1
  2905  3315  3320    1
  2906  3321  3322    1
  2907  3322  3323    1
  2908  3322  3324    1
  2909  3322  3325    1
  2910  3323  3326    1
  2911  3323  3327    1
  2912  3323  3328    1
  2913  3329  3330    1
  2914  3330  3331    1
  2915  3330  3332    1
  2916  3330  3333    1
  2917  3331  3334    1
  2918  3331  3335    1
  2919  3331  3336    1
  2920  3337  3338    1
  2921  3338  3339    1
  2922  3338  3340    1
  2923  3338  3341    1
  2924  3339  3342    1
  2925  3339  3343    1
  2926  3339  3344    1
  2927  3345  3346    1
  2928  3346  3347    1
  2929  3346  3348    1
  2930  3346  3349    1
  2931  3347  3350    1
  2932  3347  3351    1
  2933  3347  3352    1
  2934  3353  3354    1
  2935  3354  3355    1
  2936  3354  3356    1
  2937  3354  3357    1
  2938  3355  3358    1
  2939  3355  3359    1
  2940  3355  3360    1
  2941  3361  3362    1
  2942  3362  3363    1
  2943  3362  3364    1
  2944  3362  3365    1
  2945  3363  3366    1
  2946  3363  3367    1
  2947  3363  3368    1
  2948  3369  3370    1
  2949  3370  3371    1
  2950  3370  3372    1
  2951  3370  3373    1
  2952  3371  3374    1
  2953  3371  3375    1
  2954  3371  3376    1
  2955  3377  3378    1
  2956  3378  3379    1
  2957  3378  3380    1
  2958  3378  3381    1
  2959  3379  3382    1
  2960  3379  3383    1
  2961  3379  3384    1
  2962  3385  3386    1
  2963  3386  3387    1
  2964  3386  3388    1
  2965  3386  3389    1
  2966  3387  3390    1
  2967  3387  3391    1
  2968  3387  3392    1
  2969  3393  3394    1
  2970  3394  3395    1
  2971  3394  3396    1
  2972  3394  3397    1
  2973  3395  3398    1
  2974  3395  3399    1
  2975  3395  3400    1
  2976  3401  3402    1
  2977  3402  3403    1
  2978  3402  3404    1
  2979  3402  3405    1
  2980  3403  3406    1
  2981  3403  3407    1
  2982  3403  3408    1
  2983  3409  3410    1
  2984  3410  3411    1
  2985  3410  3412    1
  2986  3410  3413    1
  2987  3411  3414    1
  2988  3411  3415    1
  2989  3411  3416    1
  2990  3417  3418    1
  2991  3418  3419    1
  2992  3418  3420    1
  2993  3418  3421    1
  2994  3419  3422    1
  2995  3419  3423    1
  2996  3419  3424    1
  2997  3425  3426    1
  2998  3426  3427    1
  2999  3426  3428    1
  3000  3426  3429    1
  3001  3427  3430    1
  3002  3427  3431    1
  3003  3427  3432    1
  3004  3433  3434    1
  3005  3434  3435    1
  3006  3434  3436    1
  3007  3434  3437    1
  3008  3435  3438    1
  3009  3435  3439    1
  3010  3435  3440    1
  3011  3441  3442    1
  3012  3442  3443    1
  3013  3442  3444    1
  3014  3442  3445    1
  3015  3443  3446    1
  3016  3443  3447    1
  3017  3443  3448    1
  3018  3449  3450    1
  3019  3450  3451    1
  3020  3450  3452    1
  3021  3450  3453    1
  3022  3451  3454    1
  3023  3451  3455    1
  3024  3451  3456    1
  3025  3457  3458    1
  3026  3458  3459    1
  3027  3458  3460    1
  3028  3458  3461    1
  3029  3459  3462    1
  3030  3459  3463    1
  3031  3459  3464    1
  3032  3465  3466    1
  3033  3466  3467    1
  3034  3466  3468    1
  3035  3466  3469    1
  3036  3467  3470    1
  3037  3467  3471    1
  3038  3467  3472    1
  3039  3473  3474    1
  3040  3474  3475    1
  3041  3474  3476    1
  3042  3474  3477    1
  3043  3475  3478    1
  3044  3475  3479    1
  3045  3475  3480    1
  3046  3481  3482    1
  3047  3482  3483    1
  3048  3482  3484    1
  3049  3482  3485    1
  3050  3483  3486    1
  3051  3483  3487    1
  3052  3483  3488    1
  3053  3489  3490    1
  3054  3490  3491    1
  3055  3490  3492    1
  3056  3490  3493    1
  3057  3491  3494    1
  3058  3491  3495    1
  3059  3491  3496    1
  3060  3497  3498    1
  3061  3498  3499    1
  3062  3498  3500    1
  3063  3498  3501    1
  3064  3499  3502    1
  3065  3499  3503    1
  3066  3499  3504    1
  3067  3505  3506    1
  3068  3506  3507    1
  3069  3506  3508    1
  3070  3506  3509    1
  3071  3507  3510    1
  3072  3507  3511    1
  3073  3507  3512    1
  3074  3513  3514    1
  3075  3514  3515    1
  3076  3514  3516    1
  3077  3514  3517    1
  3078  3515  3518    1
  3079  3515  3519    1
  3080  3515  3520    1
  3081  3521  3522    1
  3082  3522  3523    1
  3083  3522  3524    1
  3084  3522  3525    1
  3085  3523  3526    1
  3086  3523  3527    1
  3087  3523  3528    1
  3088  3529  3530    1
  3089  3530  3531    1
  3090  3530  3532    1
  3091  3530  3533    1
  3092  3531  3534    1
  3093  3531  3535    1
  3094  3531  3536    1
  3095  3537  3538    1
  3096  3538  3539    1
  3097  3538  3540    1
  3098  3538  3541    1
  3099  3539  3542    1
  3100  3539  3543    1
  3101  3539  3544    1
  3102  3545  3546    1
  3103  3546  3547    1
  3104  3546  3548    1
  3105  3546  3549    1
  3106  3547  3550    1
  3107  3547  3551    1
  3108  3547  3552    1
  3109  3553  3554    1
  3110  3554  3555    1
  3111  3554  3556    1
  3112  3554  3557    1
  3113  3555  3558    1
  3114  3555  3559    1
  3115  3555  3560    1
  3116  3561  3562    1
  3117  3562  3563    1
  3118  3562  3564    1
  3119  3562  3565    1
  3120  3563  3566    1
  3121  3563  3567    1
  3122  3563  3568    1
  3123  3569  3570    1
  3124  3570  3571    1
  3125  3570  3572    1
  3126  3570  3573    1
  3127  3571  3574    1
  3128  3571  3575    1
  3129  3571  3576    1
  3130  3577  3578    1
  3131  3578  3579    1
  3132  3578  3580    1
  3133  3578  3581    1
  3134  3579  3582    1
  3135  3579  3583    1
  3136  3579  3584    1
  3137  3585  3586    1
  3138  3586  3587    1
  3139  3586  3588    1
  3140  3586  3589    1
  3141  3587  3590    1
  3142  3587  3591    1
  3143  3587  3592    1
  3144  3593  3594    1
  3145  3594  3595    1
  3146  3594  3596    1
  3147  3594  3597    1
  3148  3595  3598    1
  3149  3595  3599    1
  3150  3595  3600    1
  3151  3601  3602    1
  3152  3602  3603    1
  3153  3602  3604    1
  3154  3602  3605    1
  3155  3603  3606    1
  3156  3603  3607    1
  3157  3603  3608    1
  3158  3609  3610    1
  3159  3610  3611    1
  3160  3610  3612    1
  3161  3610  3613    1
  3162  3611  3614    1
  3163  3611  3615    1
  3164  3611  3616    1
  3165  3617  3618    1
  3166  3618  3619    1
  3167  3618  3620    1
  3168  3618  3621    1
  3169  3619  3622    1
  3170  3619  3623    1
  3171  3619  3624    1
  3172  3625  3626    1
  3173  3626  3627    1
  3174  3626  3628    1
  3175  3626  3629    1
  3176  3627  3630    1
  3177  3627  3631    1
  3178  3627  3632    1
  3179  3633  3634    1
  3180  3634  3635    1
  3181  3634  3636    1
  3182  3634  3637    1
  3183  3635  3638    1
  3184  3635  3639    1
  3185  3635  3640    1
  3186  3641  3642    1
  3187  3642  3643    1
  3188  3642  3644    1
  3189  3642  3645    1
  3190  3643  3646    1
  3191  3643  3647    1
  3192  3643  3648    1
  3193  3649  3650    1
  3194  3650  3651    1
  3195  3650  3652    1
  3196  3650  3653    1
  3197  3651  3654    1
  3198  3651  3655    1
  3199  3651  3656    1
  3200  3657  3658    1
  3201  3658  3659    1
  3202  3658  3660    1
  3203  3658  3661    1
  3204  3659  3662    1
  3205  3659  3663    1
  3206  3659  3664    1
  3207  3665  3666    1
  3208  3666  3667    1
  3209  3666  3668    1
  3210  3666  3669    1
  3211  3667  3670    1
  3212  3667  3671    1
  3213  3667  3672    1
  3214  3673  3674    1
  3215  3674  3675    1
  3216  3674  3676    1
  3217  3674  3677    1
  3218  3675  3678    1
  3219  3675  3679    1
  3220  3675  3680    1
  3221  3681  3682    1
  3222  3682  3683    1
  3223  3682  3684    1
  3224  3682  3685    1
  3225  3683  3686    1
  3226  3683  3687    1
  3227  3683  3688    1
  3228  3689  3690    1
  3229  3690  3691    1
  3230  3690  3692    1
  3231  3690  3693    1
  3232  3691  3694    1
  3233  3691  3695    1
  3234  3691  3696    1
  3235  3697  3698    1
  3236  3698  3699    1
  3237  3698  3700    1
  3238  3698  3701    1
  3239  3699  3702    1
  3240  3699  3703    1
  3241  3699  3704    1
  3242  3705  3706    1
  3243  3706  3707    1
  3244  3706  3708    1
  3245  3706  3709    1
  3246  3707  3710    1
  3247  3707  3711    1
  3248  3707  3712    1
  3249  3713  3714    1
  3250  3714  3715    1
  3251  3714  3716    1
  3252  3714  3717    1
  3253  3715  3718    1
  3254  3715  3719    1
  3255  3715  3720    1
  3256  3721  3722    1
  3257  3722  3723    1
  3258  3722  3724    1
  3259  3722  3725    1
  3260  3723  3726    1
  3261  3723  3727    1
  3262  3723  3728    1
  3263  3729  3730    1
  3264  3730  3731    1
  3265  3730  3732    1
  3266  3730  3733    1
  3267  3731  3734    1
  3268  3731  3735    1
  3269  3731  3736    1
  3270  3737  3738    1
  3271  3738  3739    1
  3272  3738  3740    1
  3273  3738  3741    1
  3274  3739  3742    1
  3275  3739  3743    1
  3276  3739  3744    1
  3277  3745  3746    1
  3278  3746  3747    1
  3279  3746  3748    1
  3280  3746  3749    1
  3281  3747  3750    1
  3282  3747  3751    1
  3283  3747  3752    1
  3284  3753  3754    1
  3285  3754  3755    1
  3286  3754  3756    1
  3287  3754  3757    1
  3288  3755  3758    1
  3289  3755  3759    1
  3290  3755  3760    1
  3291  3761  3762    1
  3292  3762  3763    1
  3293  3762  3764    1
  3294  3762  3765    1
  3295  3763  3766    1
  3296  3763  3767    1
  3297  3763  3768    1
  3298  3769  3770    1
  3299  3770  3771    1
  3300  3770  3772    1
  3301  3770  3773    1
  3302  3771  3774    1
  3303  3771  3775    1
  3304  3771  3776    1
  3305  3777  3778    1
  3306  3778  3779    1
  3307  3778  3780    1
  3308  3778  3781    1
  3309  3779  3782    1
  3310  3779  3783    1
  3311  3779  3784    1
  3312  3785  3786    1
  3313  3786  3787    1
  3314  3786  3788    1
  3315  3786  3789    1
  3316  3787  3790    1
  3317  3787  3791    1
  3318  3787  3792    1
  3319  3793  3794    1
  3320  3794  3795    1
  3321  3794  3796    1
  3322  3794  3797    1
  3323  3795  3798    1
  3324  3795  3799    1
  3325  3795  3800    1
  3326  3801  3802    1
  3327  3802  3803    1
  3328  3802  3804    1
  3329  3802  3805    1
  3330  3803  3806    1
  3331  3803  3807    1
  3332  3803  3808    1
  3333  3809  3810    1
  3334  3810  3811    1
  3335  3810  3812    1
  3336  3810  3813    1
  3337  3811  3814    1
  3338  3811  3815    1
  3339  3811  3816    1
  3340  3817  3818    1
  3341  3818  3819    1
  3342  3818  3820    1
  3343  3818  3821    1
  3344  3819  3822    1
  3345  3819  3823    1
  3346  3819  3824    1
  3347  3825  3826    1
  3348  3826  3827    1
  3349  3826  3828    1
  3350  3826  3829    1
  3351  3827  3830    1
  3352  3827  3831    1
  3353  3827  3832    1
  3354  3833  3834    1
  3355  3834  3835    1
  3356  3834  3836    1
  3357  3834  3837    1
  3358  3835  3838    1
  3359  3835  3839    1
  3360  3835  3840    1
  3361  3841  3842    1
  3362  3842  3843    1
  3363  3842  3844    1
  3364  3842  3845    1
  3365  3843  3846    1
  3366  3843  3847    1
  3367  3843  3848    1
  3368  3849  3850    1
  3369  3850  3851    1
  3370  3850  3852    1
  3371  3850  3853    1
  3372  3851  3854    1
  3373  3851  3855    1
  3374  3851  3856    1
  3375  3857  3858    1
  3376  3858  3859    1
  3377  3858  3860    1
  3378  3858  3861    1
  3379  3859  3862    1
  3380  3859  3863    1
  3381  3859  3864    1
  3382  3865  3866    1
  3383  3866  3867    1
  3384  3866  3868    1
  3385  3866  3869    1
  3386  3867  3870    1
  3387  3867  3871    1
  3388  3867  3872    1
  3389  3873  3874    1
  3390  3874  3875    1
  3391  3874  3876    1
  3392  3874  3877    1
  3393  3875  3878    1
  3394  3875  3879    1
  3395  3875  3880    1
  3396  3881  3882    1
  3397  3882  3883    1
  3398  3882  3884    1
  3399  3882  3885    1
  3400  3883  3886    1
  3401  3883  3887    1
  3402  3883  3888    1
  3403  3889  3890    1
  3404  3890  3891    1
  3405  3890  3892    1
  3406  3890  3893    1
  3407  3891  3894    1
  3408  3891  3895    1
  3409  3891  3896    1
  3410  3897  3898    1
  3411  3898  3899    1
  3412  3898  3900    1
  3413  3898  3901    1
  3414  3899  3902    1
  3415  3899  3903    1
  3416  3899  3904    1
  3417  3905  3906    1
  3418  3906  3907    1
  3419  3906  3908    1
  3420  3906  3909    1
  3421  3907  3910    1
  3422  3907  3911    1
  3423  3907  3912    1
  3424  3913  3914    1
  3425  3914  3915    1
  3426  3914  3916    1
  3427  3914  3917    1
  3428  3915  3918    1
  3429  3915  3919    1
  3430  3915  3920    1
  3431  3921  3922    1
  3432  3922  3923    1
  3433  3922  3924    1
  3434  3922  3925    1
  3435  3923  3926    1
  3436  3923  3927    1
  3437  3923  3928    1
  3438  3929  3930    1
  3439  3930  3931    1
  3440  3930  3932    1
  3441  3930  3933    1
  3442  3931  3934    1
  3443  3931  3935    1
  3444  3931  3936    1
  3445  3937  3938    1
  3446  3938  3939    1
  3447  3938  3940    1
  3448  3938  3941    1
  3449  3939  3942    1
  3450  3939  3943    1
  3451  3939  3944    1
  3452  3945  3946    1
  3453  3946  3947    1
  3454  3946  3948    1
  3455  3946  3949    1
  3456  3947  3950    1
  3457  3947  3951    1
  3458  3947  3952    1
  3459  3953  3954    1
  3460  3954  3955    1
  3461  3954  3956    1
  3462  3954  3957    1
  3463  3955  3958    1
  3464  3955  3959    1
  3465  3955  3960    1
  3466  3961  3962    1
  3467  3962  3963    1
  3468  3962  3964    1
  3469  3962  3965    1
  3470  3963  3966    1
  3471  3963  3967    1
  3472  3963  3968    1
  3473  3969  3970    1
  3474  3970  3971    1
  3475  3970  3972    1
  3476  3970  3973    1
  3477  3971  3974    1
  3478  3971  3975    1
  3479  3971  3976    1
  3480  3977  3978    1
  3481  3978  3979    1
  3482  3978  3980    1
  3483  3978  3981    1
  3484  3979  3982    1
  3485  3979  3983    1
  3486  3979  3984    1
  3487  3985  3986    1
  3488  3986  3987    1
  3489  3986  3988    1
  3490  3986  3989    1
  3491  3987  3990    1
  3492  3987  3991    1
  3493  3987  3992    1
  3494  3993  3994    1
  3495  3994  3995    1
  3496  3994  3996    1
  3497  3994  3997    1
  3498  3995  3998    1
  3499  3995  3999    1
  3500  3995  4000    1
  3501  4001  4002    1
  3502  4002  4003    1
  3503  4002  4004    1
  3504  4002  4005    1
  3505  4003  4006    1
  3506  4003  4007    1
  3507  4003  4008    1
  3508  4009  4010    1
  3509  4010  4011    1
  3510  4010  4012    1
  3511  4010  4013    1
  3512  4011  4014    1
  3513  4011  4015    1
  3514  4011  4016    1
  3515  4017  4018    1
  3516  4018  4019    1
  3517  4018  4020    1
  3518  4018  4021    1
  3519  4019  4022    1
  3520  4019  4023    1
  3521  4019  4024    1
  3522  4025  4026    1
  3523  4026  4027    1
  3524  4026  4028    1
  3525  4026  4029    1
  3526  4027  4030    1
  3527  4027  4031    1
  3528  4027  4032    1
  3529  4033  4034    1
  3530  4034  4035    1
  3531  4034  4036    1
  3532  4034  4037    1
  3533  4035  4038    1
  3534  4035  4039    1
  3535  4035  4040    1
  3536  4041  4042    1
  3537  4042  4043    1
  3538  4042  4044    1
  3539  4042  4045    1
  3540  4043  4046    1
  3541  4043  4047    1
  3542  4043  4048    1
  3543  4049  4050    1
  3544  4050  4051    1
  3545  4050  4052    1
  3546  4050  4053    1
  3547  4051  4054    1
  3548  4051  4055    1
  3549  4051  4056    1
  3550  4057  4058    1
  3551  4058  4059    1
  3552  4058  4060    1
  3553  4058  4061    1
  3554  4059  4062    1
  3555  4059  4063    1
  3556  4059  4064    1
  3557  4065  4066    1
  3558  4066  4067    1
  3559  4066  4068    1
  3560  4066  4069    1
  3561  4067  4070    1
  3562  4067  4071    1
  3563  4067  4072    1
  3564  4073  4074    1
  3565  4074  4075    1
  3566  4074  4076    1
  3567  4074  4077    1
  3568  4075  4078    1
  3569  4075  4079    1
  3570  4075  4080    1
  3571  4081  4082    1
  3572  4082  4083    1
  3573  4082  4084    1
  3574  4082  4085    1
  3575  4083  4086    1
  3576  4083  4087    1
  3577  4083  4088    1
  3578  4089  4090    1
  3579  4090  4091    1
  3580  4090  4092    1
  3581  4090  4093    1
  3582  4091  4094    1
  3583  4091  4095    1
  3584  4091  4096    1
  3585  4097  4098    1
  3586  4098  4099    1
  3587  4098  4100    1
  3588  4098  4101    1
  3589  4099  4102    1
  3590  4099  4103    1
  3591  4099  4104    1
  3592  4105  4106    1
  3593  4106  4107    1
  3594  4106  4108    1
  3595  4106  4109    1
  3596  4107  4110    1
  3597  4107  4111    1
  3598  4107  4112    1
  3599  4113  4114    1
  3600  4114  4115    1
  3601  4114  4116    1
  3602  4114  4117    1
  3603  4115  4118    1
  3604  4115  4119    1
  3605  4115  4120    1
  3606  4121  4122    1
  3607  4122  4123    1
  3608  4122  4124    1
  3609  4122  4125    1
  3610  4123  4126    1
  3611  4123  4127    1
  3612  4123  4128    1
  3613  4129  4130    1
  3614  4130  4131    1
  3615  4130  4132    1
  3616  4130  4133    1
  3617  4131  4134    1
  3618  4131  4135    1
  3619  4131  4136    1
  3620  4137  4138    1
  3621  4138  4139    1
  3622  4138  4140    1
  3623  4138  4141    1
  3624  4139  4142    1
  3625  4139  4143    1
  3626  4139  4144    1
  3627  4145  4146    1
  3628  4146  4147    1
  3629  4146  4148    1
  3630  4146  4149    1
  3631  4147  4150    1
  3632  4147  4151    1
  3633  4147  4152    1
  3634  4153  4154    1
  3635  4154  4155    1
  3636  4154  4156    1
  3637  4154  4157    1
  3638  4155  4158    1
  3639  4155  4159    1
  3640  4155  4160    1
  3641  4161  4162    1
  3642  4162  4163    1
  3643  4162  4164    1
  3644  4162  4165    1
  3645  4163  4166    1
  3646  4163  4167    1
  3647  4163  4168    1
  3648  4169  4170    1
  3649  4170  4171    1
  3650  4170  4172    1
  3651  4170  4173    1
  3652  4171  4174    1
  3653  4171  4175    1
  3654  4171  4176    1
  3655  4177  4178    1
  3656  4178  4179    1
  3657  4178  4180    1
  3658  4178  4181    1
  3659  4179  4182    1
  3660  4179  4183    1
  3661  4179  4184    1
  3662  4185  4186    1
  3663  4186  4187    1
  3664  4186  4188    1
  3665  4186  4189    1
  3666  4187  4190    1
  3667  4187  4191    1
  3668  4187  4192    1
  3669  4193  4194    1
  3670  4194  4195    1
  3671  4194  4196    1
  3672  4194  4197    1
  3673  4195  4198    1
  3674  4195  4199    1
  3675  4195  4200    1
  3676  4201  4202    1
  3677  4202  4203    1
  3678  4202  4204    1
  3679  4202  4205    1
  3680  4203  4206    1
  3681  4203  4207    1
  3682  4203  4208    1
  3683  4209  4210    1
  3684  4210  4211    1
  3685  4210  4212    1
  3686  4210  4213    1
  3687  4211  4214    1
  3688  4211  4215    1
  3689  4211  4216    1
  3690  4217  4218    1
  3691  4218  4219    1
  3692  4218  4220    1
  3693  4218  4221    1
  3694  4219  4222    1
  3695  4219  4223    1
  3696  4219  4224    1
  3697  4225  4226    1
  3698  4226  4227    1
  3699  4226  4228    1
  3700  4226  4229    1
  3701  4227  4230    1
  3702  4227  4231    1
  3703  4227  4232    1
  3704  4233  4234    1
  3705  4234  4235    1
  3706  4234  4236    1
  3707  4234  4237    1
  3708  4235  4238    1
  3709  4235  4239    1
  3710  4235  4240    1
  3711  4241  4242    1
  3712  4242  4243    1
  3713  4242  4244    1
  3714  4242  4245    1
  3715  4243  4246    1
  3716  4243  4247    1
  3717  4243  4248    1
  3718  4249  4250    1
  3719  4250  4251    1
  3720  4250  4252    1
  3721  4250  4253    1
  3722  4251  4254    1
  3723  4251  4255    1
  3724  4251  4256    1
  3725  4257  4258    1
  3726  4258  4259    1
  3727  4258  4260    1
  3728  4258  4261    1
  3729  4259  4262    1
  3730  4259  4263    1
  3731  4259  4264    1
  3732  4265  4266    1
  3733  4266  4267    1
  3734  4266  4268    1
  3735  4266  4269    1
  3736  4267  4270    1
  3737  4267  4271    1
  3738  4267  4272    1
  3739  4273  4274    1
  3740  4274  4275    1
  3741  4274  4276    1
  3742  4274  4277    1
  3743  4275  4278    1
  3744  4275  4279    1
  3745  4275  4280    1
  3746  4281  4282    1
  3747  4282  4283    1
  3748  4282  4284    1
  3749  4282  4285    1
  3750  4283  4286    1
  3751  4283  4287    1
  3752  4283  4288    1
  3753  4289  4290    1
  3754  4290  4291    1
  3755  4290  4292    1
  3756  4290  4293    1
  3757  4291  4294    1
  3758  4291  4295    1
  3759  4291  4296    1
  3760  4297  4298    1
  3761  4298  4299    1
  3762  4298  4300    1
  3763  4298  4301    1
  3764  4299  4302    1
  3765  4299  4303    1
  3766  4299  4304    1
  3767  4305  4306    1
  3768  4306  4307    1
  3769  4306  4308    1
  3770  4306  4309    1
  3771  4307  4310    1
  3772  4307  4311    1
  3773  4307  4312    1
  3774  4313  4314    1
  3775  4314  4315    1
  3776  4314  4316    1
  3777  4314  4317    1
  3778  4315  4318    1
  3779  4315  4319    1
  3780  4315  4320    1
  3781  4321  4322    1
  3782  4322  4323    1
  3783  4322  4324    1
  3784  4322  4325    1
  3785  4323  4326    1
  3786  4323  4327    1
  3787  4323  4328    1
  3788  4329  4330    1
  3789  4330  4331    1
  3790  4330  4332    1
  3791  4330  4333    1
  3792  4331  4334    1
  3793  4331  4335    1
  3794  4331  4336    1
  3795  4337  4338    1
  3796  4338  4339    1
  3797  4338  4340    1
  3798  4338  4341    1
  3799  4339  4342    1
  3800  4339  4343    1
  3801  4339  4344    1
  3802  4345  4346    1
  3803  4346  4347    1
  3804  4346  4348    1
  3805  4346  4349    1
  3806  4347  4350    1
  3807  4347  4351    1
  3808  4347  4352    1
  3809  4353  4354    1
  3810  4354  4355    1
  3811  4354  4356    1
  3812  4354  4357    1
  3813  4355  4358    1
  3814  4355  4359    1
  3815  4355  4360    1
  3816  4361  4362    1
  3817  4362  4363    1
  3818  4362  4364    1
  3819  4362  4365    1
  3820  4363  4366    1
  3821  4363  4367    1
  3822  4363  4368    1
  3823  4369  4370    1
  3824  4370  4371    1
  3825  4370  4372    1
  3826  4370  4373    1
  3827  4371  4374    1
  3828  4371  4375    1
  3829  4371  4376    1
  3830  4377  4378    1
  3831  4378  4379    1
  3832  4378  4380    1
  3833  4378  4381    1
  3834  4379  4382    1
  3835  4379  4383    1
  3836  4379  4384    1
  3837  4385  4386    1
  3838  4386  4387    1
  3839  4386  4388    1
  3840  4386  4389    1
  3841  4387  4390    1
  3842  4387  4391    1
  3843  4387  4392    1
  3844  4393  4394    1
  3845  4394  4395    1
  3846  4394  4396    1
  3847  4394  4397    1
  3848  4395  4398    1
  3849  4395  4399    1
  3850  4395  4400    1
  3851  4401  4402    1
  3852  4402  4403    1
  3853  4402  4404    1
  3854  4402  4405    1
  3855  4403  4406    1
  3856  4403  4407    1
  3857  4403  4408    1
  3858  4409  4410    1
  3859  4410  4411    1
  3860  4410  4412    1
  3861  4410  4413    1
  3862  4411  4414    1
  3863  4411  4415    1
  3864  4411  4416    1
  3865  4417  4418    1
  3866  4418  4419    1
  3867  4418  4420    1
  3868  4418  4421    1
  3869  4419  4422    1
  3870  4419  4423    1
  3871  4419  4424    1
  3872  4425  4426    1
  3873  4426  4427    1
  3874  4426  4428    1
  3875  4426  4429    1
  3876  4427  4430    1
  3877  4427  4431    1
  3878  4427  4432    1
  3879  4433  4434    1
  3880  4434  4435    1
  3881  4434  4436    1
  3882  4434  4437    1
  3883  4435  4438    1
  3884  4435  4439    1
  3885  4435  4440    1
  3886  4441  4442    1
  3887  4442  4443    1
  3888  4442  4444    1
  3889  4442  4445    1
  3890  4443  4446    1
  3891  4443  4447    1
  3892  4443  4448    1
  3893  4449  4450    1
  3894  4450  4451    1
  3895  4450  4452    1
  3896  4450  4453    1
  3897  4451  4454    1
  3898  4451  4455    1
  3899  4451  4456    1
  3900  4457  4458    1
  3901  4458  4459    1
  3902  4458  4460    1
  3903  4458  4461    1
  3904  4459  4462    1
  3905  4459  4463    1
  3906  4459  4464    1
  3907  4465  4466    1
  3908  4466  4467    1
  3909  4466  4468    1
  3910  4466  4469    1
  3911  4467  4470    1
  3912  4467  4471    1
  3913  4467  4472    1
  3914  4473  4474    1
  3915  4474  4475    1
  3916  4474  4476    1
  3917  4474  4477    1
  3918  4475  4478    1
  3919  4475  4479    1
  3920  4475  4480    1
  3921  4481  4482    1
  3922  4482  4483    1
  3923  4482  4484    1
  3924  4482  4485    1
  3925  4483  4486    1
  3926  4483  4487    1
  3927  4483  4488    1
  3928  4489  4490    1
  3929  4490  4491    1
  3930  4490  4492    1
  3931  4490  4493    1
  3932  4491  4494    1
  3933  4491  4495    1
  3934  4491  4496    1
  3935  4497  4498    1
  3936  4498  4499    1
  3937  4498  4500    1
  3938  4498  4501    1
  3939  4499  4502    1
  3940  4499  4503    1
  3941  4499  4504    1
  3942  4505  4506    1
  3943  4506  4507    1
  3944  4506  4508    1
  3945  4506  4509    1
  3946  4507  4510    1
  3947  4507  4511    1
  3948  4507  4512    1
  3949  4513  4514    1
  3950  4514  4515    1
  3951  4514  4516    1
  3952  4514  4517    1
  3953  4515  4518    1
  3954  4515  4519    1
  3955  4515  4520    1
  3956  4521  4522    1
  3957  4522  4523    1
  3958  4522  4524    1
  3959  4522  4525    1
  3960  4523  4526    1
  3961  4523  4527    1
  3962  4523  4528    1
  3963  4529  4530    1
  3964  4530  4531    1
  3965  4530  4532    1
  3966  4530  4533    1
  3967  4531  4534    1
  3968  4531  4535    1
  3969  4531  4536    1
  3970  4537  4538    1
  3971  4538  4539    1
  3972  4538  4540    1
  3973  4538  4541    1
  3974  4539  4542    1
  3975  4539  4543    1
  3976  4539  4544    1
  3977  4545  4546    1
  3978  4546  4547    1
  3979  4546  4548    1
  3980  4546  4549    1
  3981  4547  4550    1
  3982  4547  4551    1
  3983  4547  4552    1
  3984  4553  4554    1
  3985  4554  4555    1
  3986  4554  4556    1
  3987  4554  4557    1
  3988  4555  4558    1
  3989  4555  4559    1
  3990  4555  4560    1
  3991  4561  4562    1
  3992  4562  4563    1
  3993  4562  4564    1
  3994  4562  4565    1
  3995  4563  4566    1
  3996  4563  4567    1
  3997  4563  4568    1
  3998  4569  4570    1
  3999  4570  4571    1
  4000  4570  4572    1
  4001  4570  4573    1
  4002  4571  4574    1
  4003  4571  4575    1
  4004  4571  4576    1
  4005  4577  4578    1
  4006  4578  4579    1
  4007  4578  4580    1
  4008  4578  4581    1
  4009  4579  4582    1
  4010  4579  4583    1
  4011  4579  4584    1
  4012  4585  4586    1
  4013  4586  4587    1
  4014  4586  4588    1
  4015  4586  4589    1
  4016  4587  4590    1
  4017  4587  4591    1
  4018  4587  4592    1
  4019  4593  4594    1
  4020  4594  4595    1
  4021  4594  4596    1
  4022  4594  4597    1
  4023  4595  4598    1
  4024  4595  4599    1
  4025  4595  4600    1
  4026  4601  4602    1
  4027  4602  4603    1
  4028  4602  4604    1
  4029  4602  4605    1
  4030  4603  4606    1
  4031  4603  4607    1
  4032  4603  4608    1
  4033  4609  4610    1
  4034  4610  4611    1
  4035  4610  4612    1
  4036  4610  4613    1
  4037  4611  4614    1
  4038  4611  4615    1
  4039  4611  4616    1
  4040  4617  4618    1
  4041  4618  4619    1
  4042  4618  4620    1
  4043  4618  4621    1
  4044  4619  4622    1
  4045  4619  4623    1
  4046  4619  4624    1
  4047  4625  4626    1
  4048  4626  4627    1
  4049  4626  4628    1
  4050  4626  4629    1
  4051  4627  4630    1
  4052  4627  4631    1
  4053  4627  4632    1
  4054  4633  4634    1
  4055  4634  4635    1
  4056  4634  4636    1
  4057  4634  4637    1
  4058  4635  4638    1
  4059  4635  4639    1
  4060  4635  4640    1
  4061  4641  4642    1
  4062  4642  4643    1
  4063  4642  4644    1
  4064  4642  4645    1
  4065  4643  4646    1
  4066  4643  4647    1
  4067  4643  4648    1
  4068  4649  4650    1
  4069  4650  4651    1
  4070  4650  4652    1
  4071  4650  4653    1
  4072  4651  4654    1
  4073  4651  4655    1
  4074  4651  4656    1
  4075  4657  4658    1
  4076  4658  4659    1
  4077  4658  4660    1
  4078  4658  4661    1
  4079  4659  4662    1
  4080  4659  4663    1
  4081  4659  4664    1
  4082  4665  4666    1
  4083  4666  4667    1
  4084  4666  4668    1
  4085  4666  4669    1
  4086  4667  4670    1
  4087  4667  4671    1
  4088  4667  4672    1
  4089  4673  4674    1
  4090  4674  4675    1
  4091  4674  4676    1
  4092  4674  4677    1
  4093  4675  4678    1
  4094  4675  4679    1
  4095  4675  4680    1
  4096  4681  4682    1
  4097  4682  4683    1
  4098  4682  4684    1
  4099  4682  4685    1
  4100  4683  4686    1
  4101  4683  4687    1
  4102  4683  4688    1
  4103  4689  4690    1
  4104  4690  4691    1
  4105  4690  4692    1
  4106  4690  4693    1
  4107  4691  4694    1
  4108  4691  4695    1
  4109  4691  4696    1
  4110  4697  4698    1
  4111  4698  4699    1
  4112  4698  4700    1
  4113  4698  4701    1
  4114  4699  4702    1
  4115  4699  4703    1
  4116  4699  4704    1
  4117  4705  4706    1
  4118  4706  4707    1
  4119  4706  4708    1
  4120  4706  4709    1
  4121  4707  4710    1
  4122  4707  4711    1
  4123  4707  4712    1
  4124  4713  4714    1
  4125  4714  4715    1
  4126  4714  4716    1
  4127  4714  4717    1
  4128  4715  4718    1
  4129  4715  4719    1
  4130  4715  4720    1
  4131  4721  4722    1
  4132  4722  4723    1
  4133  4722  4724    1
  4134  4722  4725    1
  4135  4723  4726    1
  4136  4723  4727    1
  4137  4723  4728    1
  4138  4729  4730    1
  4139  4730  4731    1
  4140  4730  4732    1
  4141  4730  4733    1
  4142  4731  4734    1
  4143  4731  4735    1
  4144  4731  4736    1
  4145  4737  4738    1
  4146  4738  4739    1
  4147  4738  4740    1
  4148  4738  4741    1
  4149  4739  4742    1
  4150  4739  4743    1
  4151  4739  4744    1
  4152  4745  4746    1
  4153  4746  4747    1
  4154  4746  4748    1
  4155  4746  4749    1
  4156  4747  4750    1
  4157  4747  4751    1
  4158  4747  4752    1
  4159  4753  4754    1
  4160  4754  4755    1
  4161  4754  4756    1
  4162  4754  4757    1
  4163  4755  4758    1
  4164  4755  4759    1
  4165  4755  4760    1
  4166  4761  4762    1
  4167  4762  4763    1
  4168  4762  4764    1
  4169  4762  4765    1
  4170  4763  4766    1
  4171  4763  4767    1
  4172  4763  4768    1
  4173  4769  4770    1
  4174  4770  4771    1
  4175  4770  4772    1
  4176  4770  4773    1
  4177  4771  4774    1
  4178  4771  4775    1
  4179  4771  4776    1
  4180  4777  4778    1
  4181  4778  4779    1
  4182  4778  4780    1
  4183  4778  4781    1
  4184  4779  4782    1
  4185  4779  4783    1
  4186  4779  4784    1
  4187  4785  4786    1
  4188  4786  4787    1
  4189  4786  4788    1
  4190  4786  4789    1
  4191  4787  4790    1
  4192  4787  4791    1
  4193  4787  4792    1
  4194  4793  4794    1
  4195  4794  4795    1
  4196  4794  4796    1
  4197  4794  4797    1
  4198  4795  4798    1
  4199  4795  4799    1
  4200  4795  4800    1
  4201  4801  4802    1
  4202  4802  4803    1
  4203  4802  4804    1
  4204  4802  4805    1
  4205  4803  4806    1
  4206  4803  4807    1
  4207  4803  4808    1
  4208  4809  4810    1
  4209  4810  4811    1
  4210  4810  4812    1
  4211  4810  4813    1
  4212  4811  4814    1
  4213  4811  4815    1
  4214  4811  4816    1
  4215  4817  4818    1
  4216  4818  4819    1
  4217  4818  4820    1
  4218  4818  4821    1
  4219  4819  4822    1
  4220  4819  4823    1
  4221  4819  4824    1
  4222  4825  4826    1
  4223  4826  4827    1
  4224  4826  4828    1
  4225  4826  4829    1
  4226  4827  4830    1
  4227  4827  4831    1
  4228  4827  4832    1
  4229  4833  4834    1
  4230  4834  4835    1
  4231  4834  4836    1
  4232  4834  4837    1
  4233  4835  4838    1
  4234  4835  4839    1
  4235  4835  4840    1
  4236  4841  4842    1
  4237  4842  4843    1
  4238  4842  4844    1
  4239  4842  4845    1
  4240  4843  4846    1
  4241  4843  4847    1
  4242  4843  4848    1
  4243  4849  4850    1
  4244  4850  4851    1
  4245  4850  4852    1
  4246  4850  4853    1
  4247  4851  4854    1
  4248  4851  4855    1
  4249  4851  4856    1
  4250  4857  4858    1
  4251  4858  4859    1
  4252  4858  4860    1
  4253  4858  4861    1
  4254  4859  4862    1
  4255  4859  4863    1
  4256  4859  4864    1
  4257  4865  4866    1
  4258  4866  4867    1
  4259  4866  4868    1
  4260  4866  4869    1
  4261  4867  4870    1
  4262  4867  4871    1
  4263  4867  4872    1
  4264  4873  4874    1
  4265  4874  4875    1
  4266  4874  4876    1
  4267  4874  4877    1
  4268  4875  4878    1
  4269  4875  4879    1
  4270  4875  4880    1
  4271  4881  4882    1
  4272  4882  4883    1
  4273  4882  4884    1
  4274  4882  4885    1
  4275  4883  4886    1
  4276  4883  4887    1
  4277  4883  4888    1
  4278  4889  4890    1
  4279  4890  4891    1
  4280  4890  4892    1
  4281  4890  4893    1
  4282  4891  4894    1
  4283  4891  4895    1
  4284  4891  4896    1
  4285  4897  4898    1
  4286  4898  4899    1
  4287  4898  4900    1
  4288  4898  4901    1
  4289  4899  4902    1
  4290  4899  4903    1
  4291  4899  4904    1
  4292  4905  4906    1
  4293  4906  4907    1
  4294  4906  4908    1
  4295  4906  4909    1
  4296  4907  4910    1
  4297  4907  4911    1
  4298  4907  4912    1
  4299  4913  4914    1
  4300  4914  4915    1
  4301  4914  4916    1
  4302  4914  4917    1
  4303  4915  4918    1
  4304  4915  4919    1
  4305  4915  4920    1
  4306  4921  4922    1
  4307  4922  4923    1
  4308  4922  4924    1
  4309  4922  4925    1
  4310  4923  4926    1
  4311  4923  4927    1
  4312  4923  4928    1
  4313  4929  4930    1
  4314  4930  4931    1
  4315  4930  4932    1
  4316  4930  4933    1
  4317  4931  4934    1
  4318  4931  4935    1
  4319  4931  4936    1
  4320  4937  4938    1
  4321  4938  4939    1
  4322  4938  4940    1
  4323  4938  4941    1
  4324  4939  4942    1
  4325  4939  4943    1
  4326  4939  4944    1
  4327  4945  4946    1
  4328  4946  4947    1
  4329  4946  4948    1
  4330  4946  4949    1
  4331  4947  4950    1
  4332  4947  4951    1
  4333  4947  4952    1
  4334  4953  4954    1
  4335  4954  4955    1
  4336  4954  4956    1
  4337  4954  4957    1
  4338  4955  4958    1
  4339  4955  4959    1
  4340  4955  4960    1
  4341  4961  4962    1
  4342  4962  4963    1
  4343  4962  4964    1
  4344  4962  4965    1
  4345  4963  4966    1
  4346  4963  4967    1
  4347  4963  4968    1
  4348  4969  4970    1
  4349  4970  4971    1
  4350  4970  4972    1
  4351  4970  4973    1
  4352  4971  4974    1
  4353  4971  4975    1
  4354  4971  4976    1
  4355  4977  4978    1
  4356  4978  4979    1
  4357  4978  4980    1
  4358  4978  4981    1
  4359  4979  4982    1
  4360  4979  4983    1
  4361  4979  4984    1
  4362  4985  4986    1
  4363  4986  4987    1
  4364  4986  4988    1
  4365  4986  4989    1
  4366  4987  4990    1
  4367  4987  4991    1
  4368  4987  4992    1
  4369  4993  4994    1
  4370  4994  4995    1
  4371  4994  4996    1
  4372  4994  4997    1
  4373  4995  4998    1
  4374  4995  4999    1
  4375  4995  5000    1
  4376  5001  5002    1
  4377  5002  5003    1
  4378  5002  5004    1
  4379  5002  5005    1
  4380  5003  5006    1
  4381  5003  5007    1
  4382  5003  5008    1
  4383  5009  5010    1
  4384  5010  5011    1
  4385  5010  5012    1
  4386  5010  5013    1
  4387  5011  5014    1
  4388  5011  5015    1
  4389  5011  5016    1
  4390  5017  5018    1
  4391  5018  5019    1
  4392  5018  5020    1
  4393  5018  5021    1
  4394  5019  5022    1
  4395  5019  5023    1
  4396  5019  5024    1
  4397  5025  5026    1
  4398  5026  5027    1
  4399  5026  5028    1
  4400  5026  5029    1
  4401  5027  5030    1
  4402  5027  5031    1
  4403  5027  5032    1
  4404  5033  5034    1
  4405  5034  5035    1
  4406  5034  5036    1
  4407  5034  5037    1
  4408  5035  5038    1
  4409  5035  5039    1
  4410  5035  5040    1
  4411  5041  5042    1
  4412  5042  5043    1
  4413  5042  5044    1
  4414  5042  5045    1
  4415  5043  5046    1
  4416  5043  5047    1
  4417  5043  5048    1
  4418  5049  5050    1
  4419  5050  5051    1
  4420  5050  5052    1
  4421  5050  5053    1
  4422  5051  5054    1
  4423  5051  5055    1
  4424  5051  5056    1
  4425  5057  5058    1
  4426  5058  5059    1
  4427  5058  5060    1
  4428  5058  5061    1
  4429  5059  5062    1
  4430  5059  5063    1
  4431  5059  5064    1
  4432  5065  5066    1
  4433  5066  5067    1
  4434  5066  5068    1
  4435  5066  5069    1
  4436  5067  5070    1
  4437  5067  5071    1
  4438  5067  5072    1
  4439  5073  5074    1
  4440  5074  5075    1
  4441  5074  5076    1
  4442  5074  5077    1
  4443  5075  5078    1
  4444  5075  5079    1
  4445  5075  5080    1
  4446  5081  5082    1
  4447  5082  5083    1
  4448  5082  5084    1
  4449  5082  5085    1
  4450  5083  5086    1
  4451  5083  5087    1
  4452  5083  5088    1
  4453  5089  5090    1
  4454  5090  5091    1
  4455  5090  5092    1
  4456  5090  5093    1
  4457  5091  5094    1
  4458  5091  5095    1
  4459  5091  5096    1
  4460  5097  5098    1
  4461  5098  5099    1
  4462  5098  5100    1
  4463  5098  5101    1
  4464  5099  5102    1
  4465  5099  5103    1
  4466  5099  5104    1
  4467  5105  5106    1
  4468  5106  5107    1
  4469  5106  5108    1
  4470  5106  5109    1
  4471  5107  5110    1
  4472  5107  5111    1
  4473  5107  5112    1
  4474  5113  5114    1
  4475  5114  5115    1
  4476  5114  5116    1
  4477  5114  5117    1
  4478  5115  5118    1
  4479  5115  5119    1
  4480  5115  5120    1
  4481  5121  5122    1
  4482  5122  5123    1
  4483  5122  5124    1
  4484  5122  5125    1
  4485  5123  5126    1
  4486  5123  5127    1
  4487  5123  5128    1
  4488  5129  5130    1
  4489  5130  5131    1
  4490  5130  5132    1
  4491  5130  5133    1
  4492  5131  5134    1
  4493  5131  5135    1
  4494  5131  5136    1
  4495  5137  5138    1
  4496  5138  5139    1
  4497  5138  5140    1
  4498  5138  5141    1
  4499  5139  5142    1
  4500  5139  5143    1
  4501  5139  5144    1
  4502  5145  5146    1
  4503  5146  5147    1
  4504  5146  5148    1
  4505  5146  5149    1
  4506  5147  5150    1
  4507  5147  5151    1
  4508  5147  5152    1
  4509  5153  5154    1
  4510  5154  5155    1
  4511  5154  5156    1
  4512  5154  5157    1
  4513  5155  5158    1
  4514  5155  5159    1
  4515  5155  5160    1
  4516  5161  5162    1
  4517  5162  5163    1
  4518  5162  5164    1
  4519  5162  5165    1
  4520  5163  5166    1
  4521  5163  5167    1
  4522  5163  5168    1
  4523  5169  5170    1
  4524  5170  5171    1
  4525  5170  5172    1
  4526  5170  5173    1
  4527  5171  5174    1
  4528  5171  5175    1
  4529  5171  5176    1
  4530  5177  5178    1
  4531  5178  5179    1
  4532  5178  5180    1
  4533  5178  5181    1
  4534  5179  5182    1
  4535  5179  5183    1
  4536  5179  5184    1
  4537  5185  5186    1
  4538  5186  5187    1
  4539  5186  5188    1
  4540  5186  5189    1
  4541  5187  5190    1
  4542  5187  5191    1
  4543  5187  5192    1
  4544  5193  5194    1
  4545  5194  5195    1
  4546  5194  5196    1
  4547  5194  5197    1
  4548  5195  5198    1
  4549  5195  5199    1
  4550  5195  5200    1
  4551  5201  5202    1
  4552  5202  5203    1
  4553  5202  5204    1
  4554  5202  5205    1
  4555  5203  5206    1
  4556  5203  5207    1
  4557  5203  5208    1
  4558  5209  5210    1
  4559  5210  5211    1
  4560  5210  5212    1
  4561  5210  5213    1
  4562  5211  5214    1
  4563  5211  5215    1
  4564  5211  5216    1
  4565  5217  5218    1
  4566  5218  5219    1
  4567  5218  5220    1
  4568  5218  5221    1
  4569  5219  5222    1
  4570  5219  5223    1
  4571  5219  5224    1
  4572  5225  5226    1
  4573  5226  5227    1
  4574  5226  5228    1
  4575  5226  5229    1
  4576  5227  5230    1
  4577  5227  5231    1
  4578  5227  5232    1
  4579  5233  5234    1
  4580  5234  5235    1
  4581  5234  5236    1
  4582  5234  5237    1
  4583  5235  5238    1
  4584  5235  5239    1
  4585  5235  5240    1
  4586  5241  5242    1
  4587  5242  5243    1
  4588  5242  5244    1
  4589  5242  5245    1
  4590  5243  5246    1
  4591  5243  5247    1
  4592  5243  5248    1
  4593  5249  5250    1
  4594  5250  5251    1
  4595  5250  5252    1
  4596  5250  5253    1
  4597  5251  5254    1
  4598  5251  5255    1
  4599  5251  5256    1
  4600  5257  5258    1
  4601  5258  5259    1
  4602  5258  5260    1
  4603  5258  5261    1
  4604  5259  5262    1
  4605  5259  5263    1
  4606  5259  5264    1
  4607  5265  5266    1
  4608  5266  5267    1
  4609  5266  5268    1
  4610  5266  5269    1
  4611  5267  5270    1
  4612  5267  5271    1
  4613  5267  5272    1
  4614  5273  5274    1
  4615  5274  5275    1
  4616  5274  5276    1
  4617  5274  5277    1
  4618  5275  5278    1
  4619  5275  5279    1
  4620  5275  5280    1
  4621  5281  5282    1
  4622  5282  5283    1
  4623  5282  5284    1
  4624  5282  5285    1
  4625  5283  5286    1
  4626  5283  5287    1
  4627  5283  5288    1
  4628  5289  5290    1
  4629  5290  5291    1
  4630  5290  5292    1
  4631  5290  5293    1
  4632  5291  5294    1
  4633  5291  5295    1
  4634  5291  5296    1
  4635  5297  5298    1
  4636  5298  5299    1
  4637  5298  5300    1
  4638  5298  5301    1
  4639  5299  5302    1
  4640  5299  5303    1
  4641  5299  5304    1
  4642  5305  5306    1
  4643  5306  5307    1
  4644  5306  5308    1
  4645  5306  5309    1
  4646  5307  5310    1
  4647  5307  5311    1
  4648  5307  5312    1
  4649  5313  5314    1
  4650  5314  5315    1
  4651  5314  5316    1
  4652  5314  5317    1
  4653  5315  5318    1
  4654  5315  5319    1
  4655  5315  5320    1
  4656  5321  5322    1
  4657  5322  5323    1
  4658  5322  5324    1
  4659  5322  5325    1
  4660  5323  5326    1
  4661  5323  5327    1
  4662  5323  5328    1
  4663  5329  5330    1
  4664  5330  5331    1
  4665  5330  5332    1
  4666  5330  5333    1
  4667  5331  5334    1
  4668  5331  5335    1
  4669  5331  5336    1
  4670  5337  5338    1
  4671  5338  5339    1
  4672  5338  5340    1
  4673  5338  5341    1
  4674  5339  5342    1
  4675  5339  5343    1
  4676  5339  5344    1
  4677  5345  5346    1
  4678  5346  5347    1
  4679  5346  5348    1
  4680  5346  5349    1
  4681  5347  5350    1
  4682  5347  5351    1
  4683  5347  5352    1
  4684  5353  5354    1
  4685  5354  5355    1
  4686  5354  5356    1
  4687  5354  5357    1
  4688  5355  5358    1
  4689  5355  5359    1
  4690  5355  5360    1
  4691  5361  5362    1
  4692  5362  5363    1
  4693  5362  5364    1
  4694  5362  5365    1
  4695  5363  5366    1
  4696  5363  5367    1
  4697  5363  5368    1
  4698  5369  5370    1
  4699  5370  5371    1
  4700  5370  5372    1
  4701  5370  5373    1
  4702  5371  5374    1
  4703  5371  5375    1
  4704  5371  5376    1
  4705  5377  5378    1
  4706  5378  5379    1
  4707  5378  5380    1
  4708  5378  5381    1
  4709  5379  5382    1
  4710  5379  5383    1
  4711  5379  5384    1
  4712  5385  5386    1
  4713  5386  5387    1
  4714  5386  5388    1
  4715  5386  5389    1
  4716  5387  5390    1
  4717  5387  5391    1
  4718  5387  5392    1
  4719  5393  5394    1
  4720  5394  5395    1
  4721  5394  5396    1
  4722  5394  5397    1
  4723  5395  5398    1
  4724  5395  5399    1
  4725  5395  5400    1
  4726  5401  5402    1
  4727  5402  5403    1
  4728  5402  5404    1
  4729  5402  5405    1
  4730  5403  5406    1
  4731  5403  5407    1
  4732  5403  5408    1
  4733  5409  5410    1
  4734  5410  5411    1
  4735  5410  5412    1
  4736  5410  5413    1
  4737  5411  5414    1
  4738  5411  5415    1
  4739  5411  5416    1
  4740  5417  5418    1
  4741  5418  5419    1
  4742  5418  5420    1
  4743  5418  5421    1
  4744  5419  5422    1
  4745  5419  5423    1
  4746  5419  5424    1
  4747  5425  5426    1
  4748  5426  5427    1
  4749  5426  5428    1
  4750  5426  5429    1
  4751  5427  5430    1
  4752  5427  5431    1
  4753  5427  5432    1
  4754  5433  5434    1
  4755  5434  5435    1
  4756  5434  5436    1
  4757  5434  5437    1
  4758  5435  5438    1
  4759  5435  5439    1
  4760  5435  5440    1
  4761  5441  5442    1
  4762  5442  5443    1
  4763  5442  5444    1
  4764  5442  5445    1
  4765  5443  5446    1
  4766  5443  5447    1
  4767  5443  5448    1
  4768  5449  5450    1
  4769  5450  5451    1
  4770  5450  5452    1
  4771  5450  5453    1
  4772  5451  5454    1
  4773  5451  5455    1
  4774  5451  5456    1
  4775  5457  5458    1
  4776  5458  5459    1
  4777  5458  5460    1
  4778  5458  5461    1
  4779  5459  5462    1
  4780  5459  5463    1
  4781  5459  5464    1
  4782  5465  5466    1
  4783  5466  5467    1
  4784  5466  5468    1
  4785  5466  5469    1
  4786  5467  5470    1
  4787  5467  5471    1
  4788  5467  5472    1
  4789  5473  5474    1
  4790  5474  5475    1
  4791  5474  5476    1
  4792  5474  5477    1
  4793  5475  5478    1
  4794  5475  5479    1
  4795  5475  5480    1
  4796  5481  5482    1
  4797  5482  5483    1
  4798  5482  5484    1
  4799  5482  5485    1
  4800  5483  5486    1
  4801  5483  5487    1
  4802  5483  5488    1
  4803  5489  5490    1
  4804  5490  5491    1
  4805  5490  5492    1
  4806  5490  5493    1
  4807  5491  5494    1
  4808  5491  5495    1
  4809  5491  5496    1
  4810  5497  5498    1
  4811  5498  5499    1
  4812  5498  5500    1
  4813  5498  5501    1
  4814  5499  5502    1
  4815  5499  5503    1
  4816  5499  5504    1
  4817  5505  5506    1
  4818  5506  5507    1
  4819  5506  5508    1
  4820  5506  5509    1
  4821  5507  5510    1
  4822  5507  5511    1
  4823  5507  5512    1
  4824  5513  5514    1
  4825  5514  5515    1
  4826  5514  5516    1
  4827  5514  5517    1
  4828  5515  5518    1
  4829  5515  5519    1
  4830  5515  5520    1
  4831  5521  5522    1
  4832  5522  5523    1
  4833  5522  5524    1
  4834  5522  5525    1
  4835  5523  5526    1
  4836  5523  5527    1
  4837  5523  5528    1
  4838  5529  5530    1
  4839  5530  5531    1
  4840  5530  5532    1
  4841  5530  5533    1
  4842  5531  5534    1
  4843  5531  5535    1
  4844  5531  5536    1
  4845  5537  5538    1
  4846  5538  5539    1
  4847  5538  5540    1
  4848  5538  5541    1
  4849  5539  5542    1
  4850  5539  5543    1
  4851  5539  5544    1
  4852  5545  5546    1
  4853  5546  5547    1
  4854  5546  5548    1
  4855  5546  5549    1
  4856  5547  5550    1
  4857  5547  5551    1
  4858  5547  5552    1
  4859  5553  5554    1
  4860  5554  5555    1
  4861  5554  5556    1
  4862  5554  5557    1
  4863  5555  5558    1
  4864  5555  5559    1
  4865  5555  5560    1
  4866  5561  5562    1
  4867  5562  5563    1
  4868  5562  5564    1
  4869  5562  5565    1
  4870  5563  5566    1
  4871  5563  5567    1
  4872  5563  5568    1
  4873  5569  5570    1
  4874  5570  5571    1
  4875  5570  5572    1
  4876  5570  5573    1
  4877  5571  5574    1
  4878  5571  5575    1
  4879  5571  5576    1
  4880  5577  5578    1
  4881  5578  5579    1
  4882  5578  5580    1
  4883  5578  5581    1
  4884  5579  5582    1
  4885  5579  5583    1
  4886  5579  5584    1
  4887  5585  5586    1
  4888  5586  5587    1
  4889  5586  5588    1
  4890  5586  5589    1
  4891  5587  5590    1
  4892  5587  5591    1
  4893  5587  5592    1
  4894  5593  5594    1
  4895  5594  5595    1
  4896  5594  5596    1
  4897  5594  5597    1
  4898  5595  5598    1
  4899  5595  5599    1
  4900  5595  5600    1
  4901  5601  5602    1
  4902  5602  5603    1
  4903  5602  5604    1
  4904  5602  5605    1
  4905  5603  5606    1
  4906  5603  5607    1
  4907  5603  5608    1
  4908  5609  5610    1
  4909  5610  5611    1
  4910  5610  5612    1
  4911  5610  5613    1
  4912  5611  5614    1
  4913  5611  5615    1
  4914  5611  5616    1
  4915  5617  5618    1
  4916  5618  5619    1
  4917  5618  5620    1
  4918  5618  5621    1
  4919  5619  5622    1
  4920  5619  5623    1
  4921  5619  5624    1
  4922  5625  5626    1
  4923  5626  5627    1
  4924  5626  5628    1
  4925  5626  5629    1
  4926  5627  5630    1
  4927  5627  5631    1
  4928  5627  5632    1
  4929  5633  5634    1
  4930  5634  5635    1
  4931  5634  5636    1
  4932  5634  5637    1
  4933  5635  5638    1
  4934  5635  5639    1
  4935  5635  5640    1
  4936  5641  5642    1
  4937  5642  5643    1
  4938  5642  5644    1
  4939  5642  5645    1
  4940  5643  5646    1
  4941  5643  5647    1
  4942  5643  5648    1
  4943  5649  5650    1
  4944  5650  5651    1
  4945  5650  5652    1
  4946  5650  5653    1
  4947  5651  5654    1
  4948  5651  5655    1
  4949  5651  5656    1
  4950  5657  5658    1
  4951  5658  5659    1
  4952  5658  5660    1
  4953  5658  5661    1
  4954  5659  5662    1
  4955  5659  5663    1
  4956  5659  5664    1
  4957  5665  5666    1
  4958  5666  5667    1
  4959  5666  5668    1
  4960  5666  5669    1
  4961  5667  5670    1
  4962  5667  5671    1
  4963  5667  5672    1
  4964  5673  5674    1
  4965  5674  5675    1
  4966  5674  5676    1
  4967  5674  5677    1
  4968  5675  5678    1
  4969  5675  5679    1
  4970  5675  5680    1
  4971  5681  5682    1
  4972  5682  5683    1
  4973  5682  5684    1
  4974  5682  5685    1
  4975  5683  5686    1
  4976  5683  5687    1
  4977  5683  5688    1
  4978  5689  5690    1
  4979  5690  5691    1
  4980  5690  5692    1
  4981  5690  5693    1
  4982  5691  5694    1
  4983  5691  5695    1
  4984  5691  5696    1
  4985  5697  5698    1
  4986  5698  5699    1
  4987  5698  5700    1
  4988  5698  5701    1
  4989  5699  5702    1
  4990  5699  5703    1
  4991  5699  5704    1
  4992  5705  5706    1
  4993  5706  5707    1
  4994  5706  5708    1
  4995  5706  5709    1
  4996  5707  5710    1
  4997  5707  5711    1
  4998  5707  5712    1
  4999  5713  5714    1
  5000  5714  5715    1
  5001  5714  5716    1
  5002  5714  5717    1
  5003  5715  5718    1
  5004  5715  5719    1
  5005  5715  5720    1
  5006  5721  5722    1
  5007  5722  5723    1
  5008  5722  5724    1
  5009  5722  5725    1
  5010  5723  5726    1
  5011  5723  5727    1
  5012  5723  5728    1
  5013  5729  5730    1
  5014  5730  5731    1
  5015  5730  5732    1
  5016  5730  5733    1
  5017  5731  5734    1
  5018  5731  5735    1
  5019  5731  5736    1
  5020  5737  5738    1
  5021  5738  5739    1
  5022  5738  5740    1
  5023  5738  5741    1
  5024  5739  5742    1
  5025  5739  5743    1
  5026  5739  5744    1
  5027  5745  5746    1
  5028  5746  5747    1
  5029  5746  5748    1
  5030  5746  5749    1
  5031  5747  5750    1
  5032  5747  5751    1
  5033  5747  5752    1
  5034  5753  5754    1
  5035  5754  5755    1
  5036  5754  5756    1
  5037  5754  5757    1
  5038  5755  5758    1
  5039  5755  5759    1
  5040  5755  5760    1
  5041  5761  5762    1
  5042  5762  5763    1
  5043  5762  5764    1
  5044  5762  5765    1
  5045  5763  5766    1
  5046  5763  5767    1
  5047  5763  5768    1
  5048  5769  5770    1
  5049  5770  5771    1
  5050  5770  5772    1
  5051  5770  5773    1
  5052  5771  5774    1
  5053  5771  5775    1
  5054  5771  5776    1
  5055  5777  5778    1
  5056  5778  5779    1
  5057  5778  5780    1
  5058  5778  5781    1
  5059  5779  5782    1
  5060  5779  5783    1
  5061  5779  5784    1
  5062  5785  5786    1
  5063  5786  5787    1
  5064  5786  5788    1
  5065  5786  5789    1
  5066  5787  5790    1
  5067  5787  5791    1
  5068  5787  5792    1
  5069  5793  5794    1
  5070  5794  5795    1
  5071  5794  5796    1
  5072  5794  5797    1
  5073  5795  5798    1
  5074  5795  5799    1
  5075  5795  5800    1
  5076  5801  5802    1
  5077  5802  5803    1
  5078  5802  5804    1
  5079  5802  5805    1
  5080  5803  5806    1
  5081  5803  5807    1
  5082  5803  5808    1
  5083  5809  5810    1
  5084  5810  5811    1
  5085  5810  5812    1
  5086  5810  5813    1
  5087  5811  5814    1
  5088  5811  5815    1
  5089  5811  5816    1
  5090  5817  5818    1
  5091  5818  5819    1
  5092  5818  5820    1
  5093  5818  5821    1
  5094  5819  5822    1
  5095  5819  5823    1
  5096  5819  5824    1
  5097  5825  5826    1
  5098  5826  5827    1
  5099  5826  5828    1
  5100  5826  5829    1
  5101  5827  5830    1
  5102  5827  5831    1
  5103  5827  5832    1
  5104  5833  5834    1
  5105  5834  5835    1
  5106  5834  5836    1
  5107  5834  5837    1
  5108  5835  5838    1
  5109  5835  5839    1
  5110  5835  5840    1
  5111  5841  5842    1
  5112  5842  5843    1
  5113  5842  5844    1
  5114  5842  5845    1
  5115  5843  5846    1
  5116  5843  5847    1
  5117  5843  5848    1
  5118  5849  5850    1
  5119  5850  5851    1
  5120  5850  5852    1
  5121  5850  5853    1
  5122  5851  5854    1
  5123  5851  5855    1
  5124  5851  5856    1
  5125  5857  5858    1
  5126  5858  5859    1
  5127  5858  5860    1
  5128  5858  5861    1
  5129  5859  5862    1
  5130  5859  5863    1
  5131  5859  5864    1
  5132  5865  5866    1
  5133  5866  5867    1
  5134  5866  5868    1
  5135  5866  5869    1
  5136  5867  5870    1
  5137  5867  5871    1
  5138  5867  5872    1
  5139  5873  5874    1
  5140  5874  5875    1
  5141  5874  5876    1
  5142  5874  5877    1
  5143  5875  5878    1
  5144  5875  5879    1
  5145  5875  5880    1
  5146  5881  5882    1
  5147  5882  5883    1
  5148  5882  5884    1
  5149  5882  5885    1
  5150  5883  5886    1
  5151  5883  5887    1
  5152  5883  5888    1
  5153  5889  5890    1
  5154  5890  5891    1
  5155  5890  5892    1
  5156  5890  5893    1
  5157  5891  5894    1
  5158  5891  5895    1
  5159  5891  5896    1
  5160  5897  5898    1
  5161  5898  5899    1
  5162  5898  5900    1
  5163  5898  5901    1
  5164  5899  5902    1
  5165  5899  5903    1
  5166  5899  5904    1
  5167  5905  5906    1
  5168  5906  5907    1
  5169  5906  5908    1
  5170  5906  5909    1
  5171  5907  5910    1
  5172  5907  5911    1
  5173  5907  5912    1
  5174  5913  5914    1
  5175  5914  5915    1
  5176  5914  5916    1
  5177  5914  5917    1
  5178  5915  5918    1
  5179  5915  5919    1
  5180  5915  5920    1
  5181  5921  5922    1
  5182  5922  5923    1
  5183  5922  5924    1
  5184  5922  5925    1
  5185  5923  5926    1
  5186  5923  5927    1
  5187  5923  5928    1
  5188  5929  5930    1
  5189  5930  5931    1
  5190  5930  5932    1
  5191  5930  5933    1
  5192  5931  5934    1
  5193  5931  5935    1
  5194  5931  5936    1
  5195  5937  5938    1
  5196  5938  5939    1
  5197  5938  5940    1
  5198  5938  5941    1
  5199  5939  5942    1
  5200  5939  5943    1
  5201  5939  5944    1
  5202  5945  5946    1
  5203  5946  5947    1
  5204  5946  5948    1
  5205  5946  5949    1
  5206  5947  5950    1
  5207  5947  5951    1
  5208  5947  5952    1
  5209  5953  5954    1
  5210  5954  5955    1
  5211  5954  5956    1
  5212  5954  5957    1
  5213  5955  5958    1
  5214  5955  5959    1
  5215  5955  5960    1
  5216  5961  5962    1
  5217  5962  5963    1
  5218  5962  5964    1
  5219  5962  5965    1
  5220  5963  5966    1
  5221  5963  5967    1
  5222  5963  5968    1
  5223  5969  5970    1
  5224  5970  5971    1
  5225  5970  5972    1
  5226  5970  5973    1
  5227  5971  5974    1
  5228  5971  5975    1
  5229  5971  5976    1
  5230  5977  5978    1
  5231  5978  5979    1
  5232  5978  5980    1
  5233  5978  5981    1
  5234  5979  5982    1
  5235  5979  5983    1
  5236  5979  5984    1
  5237  5985  5986    1
  5238  5986  5987    1
  5239  5986  5988    1
  5240  5986  5989    1
  5241  5987  5990    1
  5242  5987  5991    1
  5243  5987  5992    1
  5244  5993  5994    1
  5245  5994  5995    1
  5246  5994  5996    1
  5247  5994  5997    1
  5248  5995  5998    1
  5249  5995  5999    1
  5250  5995  6000    1
  5251  6001  6002    1
  5252  6002  6003    1
  5253  6002  6004    1
  5254  6002  6005    1
  5255  6003  6006    1
  5256  6003  6007    1
  5257  6003  6008    1
  5258  6009  6010    1
  5259  6010  6011    1
  5260  6010  6012    1
  5261  6010  6013    1
  5262  6011  6014    1
  5263  6011  6015    1
  5264  6011  6016    1
  5265  6017  6018    1
  5266  6018  6019    1
  5267  6018  6020    1
  5268  6018  6021    1
  5269  6019  6022    1
  5270  6019  6023    1
  5271  6019  6024    1
  5272  6025  6026    1
  5273  6026  6027    1
  5274  6026  6028    1
  5275  6026  6029    1
  5276  6027  6030    1
  5277  6027  6031    1
  5278  6027  6032    1
  5279  6033  6034    1
  5280  6034  6035    1
  5281  6034  6036    1
  5282  6034  6037    1
  5283  6035  6038    1
  5284  6035  6039    1
  5285  6035  6040    1
  5286  6041  6042    1
  5287  6042  6043    1
  5288  6042  6044    1
  5289  6042  6045    1
  5290  6043  6046    1
  5291  6043  6047    1
  5292  6043  6048    1
  5293  6049  6050    1
  5294  6050  6051    1
  5295  6050  6052    1
  5296  6050  6053    1
  5297  6051  6054    1
  5298  6051  6055    1
  5299  6051  6056    1
  5300  6057  6058    1
  5301  6058  6059    1
  5302  6058  6060    1
  5303  6058  6061    1
  5304  6059  6062    1
  5305  6059  6063    1
  5306  6059  6064    1
  5307  6065  6066    1
  5308  6066  6067    1
  5309  6066  6068    1
  5310  6066  6069    1
  5311  6067  6070    1
  5312  6067  6071    1
  5313  6067  6072    1
  5314  6073  6074    1
  5315  6074  6075    1
  5316  6074  6076    1
  5317  6074  6077    1
  5318  6075  6078    1
  5319  6075  6079    1
  5320  6075  6080    1
  5321  6081  6082    1
  5322  6082  6083    1
  5323  6082  6084    1
  5324  6082  6085    1
  5325  6083  6086    1
  5326  6083  6087    1
  5327  6083  6088    1
  5328  6089  6090    1
  5329  6090  6091    1
  5330  6090  6092    1
  5331  6090  6093    1
  5332  6091  6094    1
  5333  6091  6095    1
  5334  6091  6096    1
  5335  6097  6098    1
  5336  6098  6099    1
  5337  6098  6100    1
  5338  6098  6101    1
  5339  6099  6102    1
  5340  6099  6103    1
  5341  6099  6104    1
  5342  6105  6106    1
  5343  6106  6107    1
  5344  6106  6108    1
  5345  6106  6109    1
  5346  6107  6110    1
  5347  6107  6111    1
  5348  6107  6112    1
  5349  6113  6114    1
  5350  6114  6115    1
  5351  6114  6116    1
  5352  6114  6117    1
  5353  6115  6118    1
  5354  6115  6119    1
  5355  6115  6120    1
  5356  6121  6122    1
  5357  6122  6123    1
  5358  6122  6124    1
  5359  6122  6125    1
  5360  6123  6126    1
  5361  6123  6127    1
  5362  6123  6128    1
  5363  6129  6130    1
  5364  6130  6131    1
  5365  6130  6132    1
  5366  6130  6133    1
  5367  6131  6134    1
  5368  6131  6135    1
  5369  6131  6136    1
  5370  6137  6138    1
  5371  6138  6139    1
  5372  6138  6140    1
  5373  6138  6141    1
  5374  6139  6142    1
  5375  6139  6143    1
  5376  6139  6144    1
  5377  6145  6146    1
  5378  6146  6147    1
  5379  6146  6148    1
  5380  6146  6149    1
  5381  6147  6150    1
  5382  6147  6151    1
  5383  6147  6152    1
  5384  6153  6154    1
  5385  6154  6155    1
  5386  6154  6156    1
  5387  6154  6157    1
  5388  6155  6158    1
  5389  6155  6159    1
  5390  6155  6160    1
  5391  6161  6162    1
  5392  6162  6163    1
  5393  6162  6164    1
  5394  6162  6165    1
  5395  6163  6166    1
  5396  6163  6167    1
  5397  6163  6168    1
  5398  6169  6170    1
  5399  6170  6171    1
  5400  6170  6172    1
  5401  6170  6173    1
  5402  6171  6174    1
  5403  6171  6175    1
  5404  6171  6176    1
  5405  6177  6178    1
  5406  6178  6179    1
  5407  6178  6180    1
  5408  6178  6181    1
  5409  6179  6182    1
  5410  6179  6183    1
  5411  6179  6184    1
  5412  6185  6186    1
  5413  6186  6187    1
  5414  6186  6188    1
  5415  6186  6189    1
  5416  6187  6190    1
  5417  6187  6191    1
  5418  6187  6192    1
  5419  6193  6194    1
  5420  6194  6195    1
  5421  6194  6196    1
  5422  6194  6197    1
  5423  6195  6198    1
  5424  6195  6199    1
  5425  6195  6200    1
  5426  6201  6202    1
  5427  6202  6203    1
  5428  6202  6204    1
  5429  6202  6205    1
  5430  6203  6206    1
  5431  6203  6207    1
  5432  6203  6208    1
  5433  6209  6210    1
  5434  6210  6211    1
  5435  6210  6212    1
  5436  6210  6213    1
  5437  6211  6214    1
  5438  6211  6215    1
  5439  6211  6216    1
  5440  6217  6218    1
  5441  6218  6219    1
  5442  6218  6220    1
  5443  6218  6221    1
  5444  6219  6222    1
  5445  6219  6223    1
  5446  6219  6224    1
  5447  6225  6226    1
  5448  6226  6227    1
  5449  6226  6228    1
  5450  6226  6229    1
  5451  6227  6230    1
  5452  6227  6231    1
  5453  6227  6232    1
  5454  6233  6234    1
  5455  6234  6235    1
  5456  6234  6236    1
  5457  6234  6237    1
  5458  6235  6238    1
  5459  6235  6239    1
  5460  6235  6240    1
  5461  6241  6242    1
  5462  6242  6243    1
  5463  6242  6244    1
  5464  6242  6245    1
  5465  6243  6246    1
  5466  6243  6247    1
  5467  6243  6248    1
  5468  6249  6250    1
  5469  6250  6251    1
  5470  6250  6252    1
  5471  6250  6253    1
  5472  6251  6254    1
  5473  6251  6255    1
  5474  6251  6256    1
  5475  6257  6258    1
  5476  6258  6259    1
  5477  6258  6260    1
  5478  6258  6261    1
  5479  6259  6262    1
  5480  6259  6263    1
  5481  6259  6264    1
  5482  6265  6266    1
  5483  6266  6267    1
  5484  6266  6268    1
  5485  6266  6269    1
  5486  6267  6270    1
  5487  6267  6271    1
  5488  6267  6272    1
  5489  6273  6274    1
  5490  6274  6275    1
  5491  6274  6276    1
  5492  6274  6277    1
  5493  6275  6278    1
  5494  6275  6279    1
  5495  6275  6280    1
  5496  6281  6282    1
  5497  6282  6283    1
  5498  6282  6284    1
  5499  6282  6285    1
  5500  6283  6286    1
  5501  6283  6287    1
  5502  6283  6288    1
  5503  6289  6290    1
  5504  6290  6291    1
  5505  6290  6292    1
  5506  6290  6293    1
  5507  6291  6294    1
  5508  6291  6295    1
  5509  6291  6296    1
  5510  6297  6298    1
  5511  6298  6299    1
  5512  6298  6300    1
  5513  6298  6301    1
  5514  6299  6302    1
  5515  6299  6303    1
  5516  6299  6304    1
  5517  6305  6306    1
  5518  6306  6307    1
  5519  6306  6308    1
  5520  6306  6309    1
  5521  6307  6310    1
  5522  6307  6311    1
  5523  6307  6312    1
  5524  6313  6314    1
  5525  6314  6315    1
  5526  6314  6316    1
  5527  6314  6317    1
  5528  6315  6318    1
  5529  6315  6319    1
  5530  6315  6320    1
  5531  6321  6322    1
  5532  6322  6323    1
  5533  6322  6324    1
  5534  6322  6325    1
  5535  6323  6326    1
  5536  6323  6327    1
  5537  6323  6328    1
  5538  6329  6330    1
  5539  6330  6331    1
  5540  6330  6332    1
  5541  6330  6333    1
  5542  6331  6334    1
  5543  6331  6335    1
  5544  6331  6336    1
  5545  6337  6338    1
  5546  6338  6339    1
  5547  6338  6340    1
  5548  6338  6341    1
  5549  6339  6342    1
  5550  6339  6343    1
  5551  6339  6344    1
  5552  6345  6346    1
  5553  6346  6347    1
  5554  6346  6348    1
  5555  6346  6349    1
  5556  6347  6350    1
  5557  6347  6351    1
  5558  6347  6352    1
