@<TRIPOS>MOLECULE
*****
 2312 2023 0 0 0
SMALL
GASTEIGER

@<TRIPOS>ATOM
      1 CL          3.6732   -0.6248   21.3933 Cl      1  UNL1       -0.1257
      2 C           2.1307   -1.5065   21.3933 C.3     1  UNL1        0.0198
      3 C           0.9662   -0.5387   21.3933 C.3     1  UNL1       -0.0517
      4 H           2.1061   -2.1436   20.5047 H       1  UNL1        0.0427
      5 H           2.1061   -2.1436   22.2818 H       1  UNL1        0.0427
      6 H           0.0193   -1.0880   21.3933 H       1  UNL1        0.0241
      7 H           0.9835    0.1024   22.2807 H       1  UNL1        0.0241
      8 H           0.9835    0.1024   20.5059 H       1  UNL1        0.0241
      9 CL          3.6732    2.0428   -0.0831 Cl      2  UNL2       -0.1257
     10 C           2.1307    1.1611   -0.0831 C.3     2  UNL2        0.0198
     11 C           0.9662    2.1289   -0.0831 C.3     2  UNL2       -0.0517
     12 H           2.1061    0.5240   -0.9717 H       2  UNL2        0.0427
     13 H           2.1061    0.5240    0.8054 H       2  UNL2        0.0427
     14 H           0.0193    1.5796   -0.0831 H       2  UNL2        0.0241
     15 H           0.9835    2.7701    0.8043 H       2  UNL2        0.0241
     16 H           0.9835    2.7701   -0.9705 H       2  UNL2        0.0241
     17 CL          1.6732    0.0428    2.3032 Cl      3  UNL3       -0.1257
     18 C           0.1307   -0.8389    2.3032 C.3     3  UNL3        0.0198
     19 C          -1.0338    0.1289    2.3032 C.3     3  UNL3       -0.0517
     20 H           0.1061   -1.4760    1.4146 H       3  UNL3        0.0427
     21 H           0.1061   -1.4760    3.1917 H       3  UNL3        0.0427
     22 H          -1.9807   -0.4204    2.3032 H       3  UNL3        0.0241
     23 H          -1.0165    0.7701    3.1906 H       3  UNL3        0.0241
     24 H          -1.0165    0.7701    1.4158 H       3  UNL3        0.0241
     25 CL          1.6732    1.4750    4.4048 Cl      4  UNL4       -0.1257
     26 C           0.1307    2.0027    5.1112 C.3     4  UNL4        0.0198
     27 C          -1.0338    1.4235    4.3359 C.3     4  UNL4       -0.0517
     28 H           0.1061    1.6720    6.1534 H       4  UNL4        0.0427
     29 H           0.1061    3.0958    5.0899 H       4  UNL4        0.0427
     30 H          -1.9807    1.7522    4.7759 H       4  UNL4        0.0241
     31 H          -1.0165    1.7507    3.2911 H       4  UNL4        0.0241
     32 H          -1.0165    0.3288    4.3532 H       4  UNL4        0.0241
     33 CL          3.6732    2.0428    9.0757 Cl      5  UNL5       -0.1257
     34 C           2.1307    1.1611    9.0757 C.3     5  UNL5        0.0198
     35 C           0.9662    2.1289    9.0757 C.3     5  UNL5       -0.0517
     36 H           2.1061    0.5240    8.1871 H       5  UNL5        0.0427
     37 H           2.1061    0.5240    9.9642 H       5  UNL5        0.0427
     38 H           0.0193    1.5796    9.0757 H       5  UNL5        0.0241
     39 H           0.9835    2.7701    9.9631 H       5  UNL5        0.0241
     40 H           0.9835    2.7701    8.1883 H       5  UNL5        0.0241
     41 CL          0.3929    0.0428    9.1060 Cl      6  UNL6       -0.1257
     42 C           1.3161   -0.8389    7.8702 C.3     6  UNL6        0.0198
     43 C           2.0130    0.1289    6.9373 C.3     6  UNL6       -0.0517
     44 H           2.0427   -1.4760    8.3823 H       6  UNL6        0.0427
     45 H           0.6190   -1.4760    7.3188 H       6  UNL6        0.0427
     46 H           2.5796   -0.4204    6.1787 H       6  UNL6        0.0241
     47 H           1.2917    0.7701    6.4201 H       6  UNL6        0.0241
     48 H           2.7136    0.7701    7.4822 H       6  UNL6        0.0241
     49 CL          1.6732    0.0428   11.8482 Cl      7  UNL7       -0.1257
     50 C           0.1307   -0.8389   11.8482 C.3     7  UNL7        0.0198
     51 C          -1.0338    0.1289   11.8482 C.3     7  UNL7       -0.0517
     52 H           0.1061   -1.4760   10.9596 H       7  UNL7        0.0427
     53 H           0.1061   -1.4760   12.7367 H       7  UNL7        0.0427
     54 H          -1.9807   -0.4204   11.8482 H       7  UNL7        0.0241
     55 H          -1.0165    0.7701   12.7356 H       7  UNL7        0.0241
     56 H          -1.0165    0.7701   10.9608 H       7  UNL7        0.0241
     57 CL          3.6732    2.0428   14.2345 Cl      8  UNL8       -0.1257
     58 C           2.1307    1.1611   14.2345 C.3     8  UNL8        0.0198
     59 C           0.9662    2.1289   14.2345 C.3     8  UNL8       -0.0517
     60 H           2.1061    0.5240   13.3459 H       8  UNL8        0.0427
     61 H           2.1061    0.5240   15.1230 H       8  UNL8        0.0427
     62 H           0.0193    1.5796   14.2345 H       8  UNL8        0.0241
     63 H           0.9835    2.7701   15.1219 H       8  UNL8        0.0241
     64 H           0.9835    2.7701   13.3471 H       8  UNL8        0.0241
     65 CL          1.6732    0.0428   16.6208 Cl      9  UNL9       -0.1257
     66 C           0.1307   -0.8389   16.6208 C.3     9  UNL9        0.0198
     67 C          -1.0338    0.1289   16.6208 C.3     9  UNL9       -0.0517
     68 H           0.1061   -1.4760   15.7321 H       9  UNL9        0.0427
     69 H           0.1061   -1.4760   17.5093 H       9  UNL9        0.0427
     70 H          -1.9807   -0.4204   16.6208 H       9  UNL9        0.0241
     71 H          -1.0165    0.7701   17.5082 H       9  UNL9        0.0241
     72 H          -1.0165    0.7701   15.7334 H       9  UNL9        0.0241
     73 CL          3.6732    2.0428   19.0070 Cl     10  UNL10      -0.1257
     74 C           2.1307    1.1611   19.0070 C.3    10  UNL10       0.0198
     75 C           0.9662    2.1289   19.0070 C.3    10  UNL10      -0.0517
     76 H           2.1061    0.5240   18.1184 H      10  UNL10       0.0427
     77 H           2.1061    0.5240   19.8955 H      10  UNL10       0.0427
     78 H           0.0193    1.5796   19.0070 H      10  UNL10       0.0241
     79 H           0.9835    2.7701   19.8944 H      10  UNL10       0.0241
     80 H           0.9835    2.7701   18.1196 H      10  UNL10       0.0241
     81 CL          1.6732   -0.5250   21.6778 Cl     11  UNL11      -0.1257
     82 C           0.1307    0.0027   20.9715 C.3    11  UNL11       0.0198
     83 C          -1.0338   -0.5765   21.7468 C.3    11  UNL11      -0.0517
     84 H           0.1061    1.0958   20.9928 H      11  UNL11       0.0427
     85 H           0.1061   -0.3279   19.9293 H      11  UNL11       0.0427
     86 H          -1.9807   -0.2478   21.3067 H      11  UNL11       0.0241
     87 H          -1.0165   -1.6712   21.7294 H      11  UNL11       0.0241
     88 H          -1.0165   -0.2493   22.7916 H      11  UNL11       0.0241
     89 CL          1.6732    2.1426    0.2015 Cl     12  UNL12      -0.1257
     90 C           0.1307    2.6703   -0.5049 C.3    12  UNL12       0.0198
     91 C          -1.0338    2.0911    0.2705 C.3    12  UNL12      -0.0517
     92 H           0.1061    3.7635   -0.4835 H      12  UNL12       0.0427
     93 H           0.1061    2.3398   -1.5470 H      12  UNL12       0.0427
     94 H          -1.9807    2.4199   -0.1696 H      12  UNL12       0.0241
     95 H          -1.0165    0.9964    0.2531 H      12  UNL12       0.0241
     96 H          -1.0165    2.4183    1.3153 H      12  UNL12       0.0241
     97 CL          1.6732    2.7105    2.3032 Cl     13  UNL13      -0.1257
     98 C           0.1307    1.8288    2.3032 C.3    13  UNL13       0.0198
     99 C          -1.0338    2.7966    2.3032 C.3    13  UNL13      -0.0517
    100 H           0.1061    1.1917    1.4146 H      13  UNL13       0.0427
    101 H           0.1061    1.1917    3.1917 H      13  UNL13       0.0427
    102 H          -1.9807    2.2473    2.3032 H      13  UNL13       0.0241
    103 H          -1.0165    3.4378    3.1906 H      13  UNL13       0.0241
    104 H          -1.0165    3.4378    1.4158 H      13  UNL13       0.0241
    105 CL          3.8732    5.7105    4.6895 Cl     14  UNL14      -0.1257
    106 C           2.3307    4.8288    4.6895 C.3    14  UNL14       0.0198
    107 C           1.1662    5.7966    4.6895 C.3    14  UNL14      -0.0517
    108 H           2.3061    4.1917    3.8008 H      14  UNL14       0.0427
    109 H           2.3061    4.1917    5.5780 H      14  UNL14       0.0427
    110 H           0.2193    5.2473    4.6895 H      14  UNL14       0.0241
    111 H           1.1835    6.4378    5.5768 H      14  UNL14       0.0241
    112 H           1.1835    6.4378    3.8021 H      14  UNL14       0.0241
    113 CL          3.6732    2.1426    5.3603 Cl     15  UNL15      -0.1257
    114 C           2.1307    2.6703    4.6539 C.3    15  UNL15       0.0198
    115 C           0.9662    2.0911    5.4293 C.3    15  UNL15      -0.0517
    116 H           2.1061    3.7635    4.6753 H      15  UNL15       0.0427
    117 H           2.1061    2.3398    3.6118 H      15  UNL15       0.0427
    118 H           0.0193    2.4199    4.9892 H      15  UNL15       0.0241
    119 H           0.9835    0.9964    5.4119 H      15  UNL15       0.0241
    120 H           0.9835    2.4183    6.4740 H      15  UNL15       0.0241
    121 CL          3.6732    4.7105    9.4620 Cl     16  UNL16      -0.1257
    122 C           2.1307    3.8288    9.4620 C.3    16  UNL16       0.0198
    123 C           0.9662    4.7966    9.4620 C.3    16  UNL16      -0.0517
    124 H           2.1061    3.1917    8.5734 H      16  UNL16       0.0427
    125 H           2.1061    3.1917   10.3505 H      16  UNL16       0.0427
    126 H           0.0193    4.2473    9.4620 H      16  UNL16       0.0241
    127 H           0.9835    5.4378   10.3494 H      16  UNL16       0.0241
    128 H           0.9835    5.4378    8.5746 H      16  UNL16       0.0241
    129 CL          1.6732    2.7105   11.8482 Cl     17  UNL17      -0.1257
    130 C           0.1307    1.8288   11.8482 C.3    17  UNL17       0.0198
    131 C          -1.0338    2.7966   11.8482 C.3    17  UNL17      -0.0517
    132 H           0.1061    1.1917   10.9596 H      17  UNL17       0.0427
    133 H           0.1061    1.1917   12.7367 H      17  UNL17       0.0427
    134 H          -1.9807    2.2473   11.8482 H      17  UNL17       0.0241
    135 H          -1.0165    3.4378   12.7356 H      17  UNL17       0.0241
    136 H          -1.0165    3.4378   10.9608 H      17  UNL17       0.0241
    137 CL          1.6732    2.1426   14.5191 Cl     18  UNL18      -0.1257
    138 C           0.1307    2.6703   13.8127 C.3    18  UNL18       0.0198
    139 C          -1.0338    2.0911   14.5880 C.3    18  UNL18      -0.0517
    140 H           0.1061    3.7635   13.8341 H      18  UNL18       0.0427
    141 H           0.1061    2.3398   12.7705 H      18  UNL18       0.0427
    142 H          -1.9807    2.4199   14.1480 H      18  UNL18       0.0241
    143 H          -1.0165    0.9964   14.5707 H      18  UNL18       0.0241
    144 H          -1.0165    2.4183   15.6328 H      18  UNL18       0.0241
    145 CL          1.6732    2.7105   16.6208 Cl     19  UNL19      -0.1257
    146 C           0.1307    1.8288   16.6208 C.3    19  UNL19       0.0198
    147 C          -1.0338    2.7966   16.6208 C.3    19  UNL19      -0.0517
    148 H           0.1061    1.1917   15.7321 H      19  UNL19       0.0427
    149 H           0.1061    1.1917   17.5093 H      19  UNL19       0.0427
    150 H          -1.9807    2.2473   16.6208 H      19  UNL19       0.0241
    151 H          -1.0165    3.4378   17.5082 H      19  UNL19       0.0241
    152 H          -1.0165    3.4378   15.7334 H      19  UNL19       0.0241
    153 CL          1.6732    2.1426   19.2916 Cl     20  UNL20      -0.1257
    154 C           0.1307    2.6703   18.5852 C.3    20  UNL20       0.0198
    155 C          -1.0338    2.0911   19.3606 C.3    20  UNL20      -0.0517
    156 H           0.1061    3.7635   18.6066 H      20  UNL20       0.0427
    157 H           0.1061    2.3398   17.5431 H      20  UNL20       0.0427
    158 H          -1.9807    2.4199   18.9205 H      20  UNL20       0.0241
    159 H          -1.0165    0.9964   19.3432 H      20  UNL20       0.0241
    160 H          -1.0165    2.4183   20.4053 H      20  UNL20       0.0241
    161 CL          3.6732    4.7105   21.3933 Cl     21  UNL21      -0.1257
    162 C           2.1307    3.8288   21.3933 C.3    21  UNL21       0.0198
    163 C           0.9662    4.7966   21.3933 C.3    21  UNL21      -0.0517
    164 H           2.1061    3.1917   20.5047 H      21  UNL21       0.0427
    165 H           2.1061    3.1917   22.2818 H      21  UNL21       0.0427
    166 H           0.0193    4.2473   21.3933 H      21  UNL21       0.0241
    167 H           0.9835    5.4378   22.2807 H      21  UNL21       0.0241
    168 H           0.9835    5.4378   20.5059 H      21  UNL21       0.0241
    169 CL          1.6732    5.3781    2.3032 Cl     22  UNL22      -0.1257
    170 C           0.1307    4.4964    2.3032 C.3    22  UNL22       0.0198
    171 C          -1.0338    5.4642    2.3032 C.3    22  UNL22      -0.0517
    172 H           0.1061    3.8593    1.4146 H      22  UNL22       0.0427
    173 H           0.1061    3.8593    3.1917 H      22  UNL22       0.0427
    174 H          -1.9807    4.9149    2.3032 H      22  UNL22       0.0241
    175 H          -1.0165    6.1054    3.1906 H      22  UNL22       0.0241
    176 H          -1.0165    6.1054    1.4158 H      22  UNL22       0.0241
    177 CL          1.6732    4.8103    4.9740 Cl     23  UNL23      -0.1257
    178 C           0.1307    5.3380    4.2676 C.3    23  UNL23       0.0198
    179 C          -1.0338    4.7588    5.0430 C.3    23  UNL23      -0.0517
    180 H           0.1061    6.4312    4.2890 H      23  UNL23       0.0427
    181 H           0.1061    5.0074    3.2255 H      23  UNL23       0.0427
    182 H          -1.9807    5.0875    4.6029 H      23  UNL23       0.0241
    183 H          -1.0165    3.6641    5.0256 H      23  UNL23       0.0241
    184 H          -1.0165    5.0860    6.0878 H      23  UNL23       0.0241
    185 CL          1.6732    5.3781    7.0757 Cl     24  UNL24      -0.1257
    186 C           0.1307    4.4964    7.0757 C.3    24  UNL24       0.0198
    187 C          -1.0338    5.4642    7.0757 C.3    24  UNL24      -0.0517
    188 H           0.1061    3.8593    6.1871 H      24  UNL24       0.0427
    189 H           0.1061    3.8593    7.9642 H      24  UNL24       0.0427
    190 H          -1.9807    4.9149    7.0757 H      24  UNL24       0.0241
    191 H          -1.0165    6.1054    7.9631 H      24  UNL24       0.0241
    192 H          -1.0165    6.1054    6.1883 H      24  UNL24       0.0241
    193 CL          1.6732    4.8103    9.1774 Cl     25  UNL25      -0.1257
    194 C           0.1307    5.3380    9.8837 C.3    25  UNL25       0.0198
    195 C          -1.0338    4.7588    9.1084 C.3    25  UNL25      -0.0517
    196 H           0.1061    5.0074   10.9259 H      25  UNL25       0.0427
    197 H           0.1061    6.4311    9.8624 H      25  UNL25       0.0427
    198 H          -1.9807    5.0875    9.5485 H      25  UNL25       0.0241
    199 H          -1.0165    5.0860    8.0636 H      25  UNL25       0.0241
    200 H          -1.0165    3.6641    9.1258 H      25  UNL25       0.0241
    201 CL          1.6732    5.3781   11.8482 Cl     26  UNL26      -0.1257
    202 C           0.1307    4.4964   11.8482 C.3    26  UNL26       0.0198
    203 C          -1.0338    5.4642   11.8482 C.3    26  UNL26      -0.0517
    204 H           0.1061    3.8593   10.9596 H      26  UNL26       0.0427
    205 H           0.1061    3.8593   12.7367 H      26  UNL26       0.0427
    206 H          -1.9807    4.9149   11.8482 H      26  UNL26       0.0241
    207 H          -1.0165    6.1054   12.7356 H      26  UNL26       0.0241
    208 H          -1.0165    6.1054   10.9608 H      26  UNL26       0.0241
    209 CL          3.6732    2.8103   11.9499 Cl     27  UNL27      -0.1257
    210 C           2.1307    3.3380   12.6563 C.3    27  UNL27       0.0198
    211 C           0.9662    2.7588   11.8809 C.3    27  UNL27      -0.0517
    212 H           2.1061    3.0074   13.6985 H      27  UNL27       0.0427
    213 H           2.1061    4.4311   12.6349 H      27  UNL27       0.0427
    214 H           0.0193    3.0875   12.3210 H      27  UNL27       0.0241
    215 H           0.9835    3.0860   10.8361 H      27  UNL27       0.0241
    216 H           0.9835    1.6641   11.8983 H      27  UNL27       0.0241
    217 CL          1.6732    5.3781   16.6208 Cl     28  UNL28      -0.1257
    218 C           0.1307    4.4964   16.6208 C.3    28  UNL28       0.0198
    219 C          -1.0338    5.4642   16.6208 C.3    28  UNL28      -0.0517
    220 H           0.1061    3.8593   15.7321 H      28  UNL28       0.0427
    221 H           0.1061    3.8593   17.5093 H      28  UNL28       0.0427
    222 H          -1.9807    4.9149   16.6208 H      28  UNL28       0.0241
    223 H          -1.0165    6.1054   17.5082 H      28  UNL28       0.0241
    224 H          -1.0165    6.1054   15.7334 H      28  UNL28       0.0241
    225 CL          3.6732    7.3781   19.0070 Cl     29  UNL29      -0.1257
    226 C           2.1307    6.4964   19.0070 C.3    29  UNL29       0.0198
    227 C           0.9662    7.4642   19.0070 C.3    29  UNL29      -0.0517
    228 H           2.1061    5.8593   18.1184 H      29  UNL29       0.0427
    229 H           2.1061    5.8593   19.8955 H      29  UNL29       0.0427
    230 H           0.0193    6.9149   19.0070 H      29  UNL29       0.0241
    231 H           0.9835    8.1054   19.8944 H      29  UNL29       0.0241
    232 H           0.9835    8.1054   18.1196 H      29  UNL29       0.0241
    233 CL          1.6732    4.8103   21.6778 Cl     30  UNL30      -0.1257
    234 C           0.1307    5.3380   20.9715 C.3    30  UNL30       0.0198
    235 C          -1.0338    4.7588   21.7468 C.3    30  UNL30      -0.0517
    236 H           0.1061    6.4312   20.9928 H      30  UNL30       0.0427
    237 H           0.1061    5.0074   19.9293 H      30  UNL30       0.0427
    238 H          -1.9807    5.0875   21.3067 H      30  UNL30       0.0241
    239 H          -1.0165    3.6641   21.7294 H      30  UNL30       0.0241
    240 H          -1.0165    5.0860   22.7916 H      30  UNL30       0.0241
    241 CL          1.6732    9.4780   -0.3677 Cl     31  UNL31      -0.1257
    242 C           0.1307   10.0056    0.3387 C.3    31  UNL31       0.0198
    243 C          -1.0338    9.4265   -0.4367 C.3    31  UNL31      -0.0517
    244 H           0.1061    9.6750    1.3809 H      31  UNL31       0.0427
    245 H           0.1061   11.0988    0.3174 H      31  UNL31       0.0427
    246 H          -1.9807    9.7552    0.0034 H      31  UNL31       0.0241
    247 H          -1.0165    9.7537   -1.4814 H      31  UNL31       0.0241
    248 H          -1.0165    8.3318   -0.4193 H      31  UNL31       0.0241
    249 CL          3.6732   10.0458    4.3032 Cl     32  UNL32      -0.1257
    250 C           2.1307    9.1641    4.3032 C.3    32  UNL32       0.0198
    251 C           0.9662   10.1319    4.3032 C.3    32  UNL32      -0.0517
    252 H           2.1061    8.5270    3.4146 H      32  UNL32       0.0427
    253 H           2.1061    8.5270    5.1917 H      32  UNL32       0.0427
    254 H           0.0193    9.5826    4.3032 H      32  UNL32       0.0241
    255 H           0.9835   10.7731    5.1906 H      32  UNL32       0.0241
    256 H           0.9835   10.7731    3.4158 H      32  UNL32       0.0241
    257 CL          0.3929    8.0458    4.3335 Cl     33  UNL33      -0.1257
    258 C           1.3161    7.1641    3.0977 C.3    33  UNL33       0.0198
    259 C           2.0130    8.1319    2.1648 C.3    33  UNL33      -0.0517
    260 H           2.0427    6.5270    3.6098 H      33  UNL33       0.0427
    261 H           0.6190    6.5270    2.5463 H      33  UNL33       0.0427
    262 H           2.5796    7.5826    1.4062 H      33  UNL33       0.0241
    263 H           1.2917    8.7731    1.6476 H      33  UNL33       0.0241
    264 H           2.7135    8.7731    2.7097 H      33  UNL33       0.0241
    265 CL          1.6732    8.0458    7.0757 Cl     34  UNL34      -0.1257
    266 C           0.1307    7.1641    7.0757 C.3    34  UNL34       0.0198
    267 C          -1.0338    8.1319    7.0757 C.3    34  UNL34      -0.0517
    268 H           0.1061    6.5270    6.1871 H      34  UNL34       0.0427
    269 H           0.1061    6.5270    7.9642 H      34  UNL34       0.0427
    270 H          -1.9807    7.5826    7.0757 H      34  UNL34       0.0241
    271 H          -1.0165    8.7731    7.9631 H      34  UNL34       0.0241
    272 H          -1.0165    8.7731    6.1883 H      34  UNL34       0.0241
    273 CL          3.6732   10.0458    9.4620 Cl     35  UNL35      -0.1257
    274 C           2.1307    9.1641    9.4620 C.3    35  UNL35       0.0198
    275 C           0.9662   10.1319    9.4620 C.3    35  UNL35      -0.0517
    276 H           2.1061    8.5270    8.5734 H      35  UNL35       0.0427
    277 H           2.1061    8.5270   10.3505 H      35  UNL35       0.0427
    278 H           0.0193    9.5826    9.4620 H      35  UNL35       0.0241
    279 H           0.9835   10.7731   10.3494 H      35  UNL35       0.0241
    280 H           0.9835   10.7731    8.5746 H      35  UNL35       0.0241
    281 CL          1.6732    8.0458   11.8482 Cl     36  UNL36      -0.1257
    282 C           0.1307    7.1641   11.8482 C.3    36  UNL36       0.0198
    283 C          -1.0338    8.1319   11.8482 C.3    36  UNL36      -0.0517
    284 H           0.1061    6.5270   10.9596 H      36  UNL36       0.0427
    285 H           0.1061    6.5270   12.7367 H      36  UNL36       0.0427
    286 H          -1.9807    7.5826   11.8482 H      36  UNL36       0.0241
    287 H          -1.0165    8.7731   12.7356 H      36  UNL36       0.0241
    288 H          -1.0165    8.7731   10.9608 H      36  UNL36       0.0241
    289 CL          1.6732    9.4780   13.9499 Cl     37  UNL37      -0.1257
    290 C           0.1307   10.0056   14.6563 C.3    37  UNL37       0.0198
    291 C          -1.0338    9.4265   13.8809 C.3    37  UNL37      -0.0517
    292 H           0.1061    9.6750   15.6985 H      37  UNL37       0.0427
    293 H           0.1061   11.0988   14.6349 H      37  UNL37       0.0427
    294 H          -1.9807    9.7552   14.3210 H      37  UNL37       0.0241
    295 H          -1.0165    9.7537   12.8361 H      37  UNL37       0.0241
    296 H          -1.0165    8.3318   13.8983 H      37  UNL37       0.0241
    297 CL          3.6732   10.0458   18.6208 Cl     38  UNL38      -0.1257
    298 C           2.1307    9.1641   18.6208 C.3    38  UNL38       0.0198
    299 C           0.9662   10.1319   18.6208 C.3    38  UNL38      -0.0517
    300 H           2.1061    8.5270   17.7321 H      38  UNL38       0.0427
    301 H           2.1061    8.5270   19.5093 H      38  UNL38       0.0427
    302 H           0.0193    9.5826   18.6208 H      38  UNL38       0.0241
    303 H           0.9835   10.7731   19.5082 H      38  UNL38       0.0241
    304 H           0.9835   10.7731   17.7334 H      38  UNL38       0.0241
    305 CL          1.6732    7.4780   18.7224 Cl     39  UNL39      -0.1257
    306 C           0.1307    8.0056   19.4288 C.3    39  UNL39       0.0198
    307 C          -1.0338    7.4265   18.6534 C.3    39  UNL39      -0.0517
    308 H           0.1061    7.6750   20.4710 H      39  UNL39       0.0427
    309 H           0.1061    9.0988   19.4075 H      39  UNL39       0.0427
    310 H          -1.9807    7.7552   19.0935 H      39  UNL39       0.0241
    311 H          -1.0165    7.7537   17.6087 H      39  UNL39       0.0241
    312 H          -1.0165    6.3318   18.6708 H      39  UNL39       0.0241
    313 CL          3.6732   10.0458   21.3933 Cl     40  UNL40      -0.1257
    314 C           2.1307    9.1641   21.3933 C.3    40  UNL40       0.0198
    315 C           0.9662   10.1319   21.3933 C.3    40  UNL40      -0.0517
    316 H           2.1061    8.5270   20.5047 H      40  UNL40       0.0427
    317 H           2.1061    8.5270   22.2818 H      40  UNL40       0.0427
    318 H           0.0193    9.5826   21.3933 H      40  UNL40       0.0241
    319 H           0.9835   10.7731   22.2807 H      40  UNL40       0.0241
    320 H           0.9835   10.7731   20.5059 H      40  UNL40       0.0241
    321 CL          3.6732   12.7135   -0.0831 Cl     41  UNL41      -0.1257
    322 C           2.1307   11.8318   -0.0831 C.3    41  UNL41       0.0198
    323 C           0.9662   12.7996   -0.0831 C.3    41  UNL41      -0.0517
    324 H           2.1061   11.1947   -0.9717 H      41  UNL41       0.0427
    325 H           2.1061   11.1947    0.8054 H      41  UNL41       0.0427
    326 H           0.0193   12.2503   -0.0831 H      41  UNL41       0.0241
    327 H           0.9835   13.4408    0.8043 H      41  UNL41       0.0241
    328 H           0.9835   13.4408   -0.9705 H      41  UNL41       0.0241
    329 CL          3.6732   12.7135    4.3032 Cl     42  UNL42      -0.1257
    330 C           2.1307   11.8318    4.3032 C.3    42  UNL42       0.0198
    331 C           0.9662   12.7996    4.3032 C.3    42  UNL42      -0.0517
    332 H           2.1061   11.1947    3.4146 H      42  UNL42       0.0427
    333 H           2.1061   11.1947    5.1917 H      42  UNL42       0.0427
    334 H           0.0193   12.2503    4.3032 H      42  UNL42       0.0241
    335 H           0.9835   13.4408    5.1906 H      42  UNL42       0.0241
    336 H           0.9835   13.4408    3.4158 H      42  UNL42       0.0241
    337 CL          3.6732   10.7135    2.6895 Cl     43  UNL43      -0.1257
    338 C           2.1307    9.8318    2.6895 C.3    43  UNL43       0.0198
    339 C           0.9662   10.7996    2.6895 C.3    43  UNL43      -0.0517
    340 H           2.1061    9.1947    1.8008 H      43  UNL43       0.0427
    341 H           2.1061    9.1947    3.5780 H      43  UNL43       0.0427
    342 H           0.0193   10.2503    2.6895 H      43  UNL43       0.0241
    343 H           0.9835   11.4408    3.5768 H      43  UNL43       0.0241
    344 H           0.9835   11.4408    1.8021 H      43  UNL43       0.0241
    345 CL          1.6732   10.7135    7.0757 Cl     44  UNL44      -0.1257
    346 C           0.1307    9.8318    7.0757 C.3    44  UNL44       0.0198
    347 C          -1.0338   10.7996    7.0757 C.3    44  UNL44      -0.0517
    348 H           0.1061    9.1947    6.1871 H      44  UNL44       0.0427
    349 H           0.1061    9.1947    7.9642 H      44  UNL44       0.0427
    350 H          -1.9807   10.2503    7.0757 H      44  UNL44       0.0241
    351 H          -1.0165   11.4408    7.9631 H      44  UNL44       0.0241
    352 H          -1.0165   11.4408    6.1883 H      44  UNL44       0.0241
    353 CL          1.6732   10.1456    9.1774 Cl     45  UNL45      -0.1257
    354 C           0.1307   10.6733    9.8837 C.3    45  UNL45       0.0198
    355 C          -1.0338   10.0941    9.1084 C.3    45  UNL45      -0.0517
    356 H           0.1061   10.3427   10.9259 H      45  UNL45       0.0427
    357 H           0.1061   11.7664    9.8624 H      45  UNL45       0.0427
    358 H          -1.9807   10.4229    9.5485 H      45  UNL45       0.0241
    359 H          -1.0165   10.4213    8.0636 H      45  UNL45       0.0241
    360 H          -1.0165    8.9994    9.1258 H      45  UNL45       0.0241
    361 CL          1.6732   10.7135   11.8482 Cl     46  UNL46      -0.1257
    362 C           0.1307    9.8318   11.8482 C.3    46  UNL46       0.0198
    363 C          -1.0338   10.7996   11.8482 C.3    46  UNL46      -0.0517
    364 H           0.1061    9.1947   10.9596 H      46  UNL46       0.0427
    365 H           0.1061    9.1947   12.7367 H      46  UNL46       0.0427
    366 H          -1.9807   10.2503   11.8482 H      46  UNL46       0.0241
    367 H          -1.0165   11.4408   12.7356 H      46  UNL46       0.0241
    368 H          -1.0165   11.4408   10.9608 H      46  UNL46       0.0241
    369 CL          3.6732   12.7135   14.2345 Cl     47  UNL47      -0.1257
    370 C           2.1307   11.8318   14.2345 C.3    47  UNL47       0.0198
    371 C           0.9662   12.7996   14.2345 C.3    47  UNL47      -0.0517
    372 H           2.1061   11.1947   13.3459 H      47  UNL47       0.0427
    373 H           2.1061   11.1947   15.1230 H      47  UNL47       0.0427
    374 H           0.0193   12.2503   14.2345 H      47  UNL47       0.0241
    375 H           0.9835   13.4408   15.1219 H      47  UNL47       0.0241
    376 H           0.9835   13.4408   13.3471 H      47  UNL47       0.0241
    377 CL          3.6732   12.7135   18.6208 Cl     48  UNL48      -0.1257
    378 C           2.1307   11.8318   18.6208 C.3    48  UNL48       0.0198
    379 C           0.9662   12.7996   18.6208 C.3    48  UNL48      -0.0517
    380 H           2.1061   11.1947   17.7321 H      48  UNL48       0.0427
    381 H           2.1061   11.1947   19.5093 H      48  UNL48       0.0427
    382 H           0.0193   12.2503   18.6208 H      48  UNL48       0.0241
    383 H           0.9835   13.4408   19.5082 H      48  UNL48       0.0241
    384 H           0.9835   13.4408   17.7334 H      48  UNL48       0.0241
    385 CL          3.6732   10.7135   17.0070 Cl     49  UNL49      -0.1257
    386 C           2.1307    9.8318   17.0070 C.3    49  UNL49       0.0198
    387 C           0.9662   10.7996   17.0070 C.3    49  UNL49      -0.0517
    388 H           2.1061    9.1947   16.1184 H      49  UNL49       0.0427
    389 H           2.1061    9.1947   17.8955 H      49  UNL49       0.0427
    390 H           0.0193   10.2503   17.0070 H      49  UNL49       0.0241
    391 H           0.9835   11.4408   17.8944 H      49  UNL49       0.0241
    392 H           0.9835   11.4408   16.1196 H      49  UNL49       0.0241
    393 CL          1.6732   10.1456   21.6778 Cl     50  UNL50      -0.1257
    394 C           0.1307   10.6733   20.9715 C.3    50  UNL50       0.0198
    395 C          -1.0338   10.0941   21.7468 C.3    50  UNL50      -0.0517
    396 H           0.1061   11.7665   20.9928 H      50  UNL50       0.0427
    397 H           0.1061   10.3427   19.9293 H      50  UNL50       0.0427
    398 H          -1.9807   10.4228   21.3067 H      50  UNL50       0.0241
    399 H          -1.0165    8.9994   21.7294 H      50  UNL50       0.0241
    400 H          -1.0165   10.4213   22.7916 H      50  UNL50       0.0241
    401 CL          1.6732   12.8133    0.2015 Cl     51  UNL51      -0.1257
    402 C           0.1307   13.3410   -0.5049 C.3    51  UNL51       0.0198
    403 C          -1.0338   12.7618    0.2705 C.3    51  UNL51      -0.0517
    404 H           0.1061   14.4341   -0.4835 H      51  UNL51       0.0427
    405 H           0.1061   13.0104   -1.5470 H      51  UNL51       0.0427
    406 H          -1.9807   13.0905   -0.1696 H      51  UNL51       0.0241
    407 H          -1.0165   11.6671    0.2531 H      51  UNL51       0.0241
    408 H          -1.0165   13.0890    1.3153 H      51  UNL51       0.0241
    409 CL          3.6732   13.3811    2.3032 Cl     52  UNL52      -0.1257
    410 C           2.1307   12.4994    2.3032 C.3    52  UNL52       0.0198
    411 C           0.9662   13.4672    2.3032 C.3    52  UNL52      -0.0517
    412 H           2.1061   11.8623    1.4146 H      52  UNL52       0.0427
    413 H           2.1061   11.8623    3.1917 H      52  UNL52       0.0427
    414 H           0.0193   12.9179    2.3032 H      52  UNL52       0.0241
    415 H           0.9835   14.1084    3.1906 H      52  UNL52       0.0241
    416 H           0.9835   14.1084    1.4158 H      52  UNL52       0.0241
    417 CL          3.6732   13.3811    4.6895 Cl     53  UNL53      -0.1257
    418 C           2.1307   12.4994    4.6895 C.3    53  UNL53       0.0198
    419 C           0.9662   13.4672    4.6895 C.3    53  UNL53      -0.0517
    420 H           2.1061   11.8623    3.8008 H      53  UNL53       0.0427
    421 H           2.1061   11.8623    5.5780 H      53  UNL53       0.0427
    422 H           0.0193   12.9179    4.6895 H      53  UNL53       0.0241
    423 H           0.9835   14.1084    5.5768 H      53  UNL53       0.0241
    424 H           0.9835   14.1084    3.8021 H      53  UNL53       0.0241
    425 CL          1.6732   13.3811    7.0757 Cl     54  UNL54      -0.1257
    426 C           0.1307   12.4994    7.0757 C.3    54  UNL54       0.0198
    427 C          -1.0338   13.4672    7.0757 C.3    54  UNL54      -0.0517
    428 H           0.1061   11.8623    6.1871 H      54  UNL54       0.0427
    429 H           0.1061   11.8623    7.9642 H      54  UNL54       0.0427
    430 H          -1.9807   12.9179    7.0757 H      54  UNL54       0.0241
    431 H          -1.0165   14.1084    7.9631 H      54  UNL54       0.0241
    432 H          -1.0165   14.1084    6.1883 H      54  UNL54       0.0241
    433 CL          3.6732   11.3811    7.4620 Cl     55  UNL55      -0.1257
    434 C           2.1307   10.4994    7.4620 C.3    55  UNL55       0.0198
    435 C           0.9662   11.4672    7.4620 C.3    55  UNL55      -0.0517
    436 H           2.1061    9.8623    6.5734 H      55  UNL55       0.0427
    437 H           2.1061    9.8623    8.3505 H      55  UNL55       0.0427
    438 H           0.0193   10.9179    7.4620 H      55  UNL55       0.0241
    439 H           0.9835   12.1084    8.3494 H      55  UNL55       0.0241
    440 H           0.9835   12.1084    6.5746 H      55  UNL55       0.0241
    441 CL          1.6732   13.3811   11.8482 Cl     56  UNL56      -0.1257
    442 C           0.1307   12.4994   11.8482 C.3    56  UNL56       0.0198
    443 C          -1.0338   13.4672   11.8482 C.3    56  UNL56      -0.0517
    444 H           0.1061   11.8623   10.9596 H      56  UNL56       0.0427
    445 H           0.1061   11.8623   12.7367 H      56  UNL56       0.0427
    446 H          -1.9807   12.9179   11.8482 H      56  UNL56       0.0241
    447 H          -1.0165   14.1084   12.7356 H      56  UNL56       0.0241
    448 H          -1.0165   14.1084   10.9608 H      56  UNL56       0.0241
    449 CL          1.6732   12.8133   14.5191 Cl     57  UNL57      -0.1257
    450 C           0.1307   13.3410   13.8127 C.3    57  UNL57       0.0198
    451 C          -1.0338   12.7618   14.5880 C.3    57  UNL57      -0.0517
    452 H           0.1061   14.4341   13.8341 H      57  UNL57       0.0427
    453 H           0.1061   13.0104   12.7705 H      57  UNL57       0.0427
    454 H          -1.9807   13.0905   14.1480 H      57  UNL57       0.0241
    455 H          -1.0165   11.6671   14.5707 H      57  UNL57       0.0241
    456 H          -1.0165   13.0890   15.6328 H      57  UNL57       0.0241
    457 CL          3.6732   13.3811   16.6208 Cl     58  UNL58      -0.1257
    458 C           2.1307   12.4994   16.6208 C.3    58  UNL58       0.0198
    459 C           0.9662   13.4672   16.6208 C.3    58  UNL58      -0.0517
    460 H           2.1061   11.8623   15.7321 H      58  UNL58       0.0427
    461 H           2.1061   11.8623   17.5093 H      58  UNL58       0.0427
    462 H           0.0193   12.9179   16.6208 H      58  UNL58       0.0241
    463 H           0.9835   14.1084   17.5082 H      58  UNL58       0.0241
    464 H           0.9835   14.1084   15.7334 H      58  UNL58       0.0241
    465 CL          3.6732   13.3811   19.0070 Cl     59  UNL59      -0.1257
    466 C           2.1307   12.4994   19.0070 C.3    59  UNL59       0.0198
    467 C           0.9662   13.4672   19.0070 C.3    59  UNL59      -0.0517
    468 H           2.1061   11.8623   18.1184 H      59  UNL59       0.0427
    469 H           2.1061   11.8623   19.8955 H      59  UNL59       0.0427
    470 H           0.0193   12.9179   19.0070 H      59  UNL59       0.0241
    471 H           0.9835   14.1084   19.8944 H      59  UNL59       0.0241
    472 H           0.9835   14.1084   18.1196 H      59  UNL59       0.0241
    473 CL          3.6732   15.3811   21.3933 Cl     60  UNL60      -0.1257
    474 C           2.1307   14.4994   21.3933 C.3    60  UNL60       0.0198
    475 C           0.9662   15.4672   21.3933 C.3    60  UNL60      -0.0517
    476 H           2.1061   13.8623   20.5047 H      60  UNL60       0.0427
    477 H           2.1061   13.8623   22.2818 H      60  UNL60       0.0427
    478 H           0.0193   14.9179   21.3933 H      60  UNL60       0.0241
    479 H           0.9835   16.1084   22.2807 H      60  UNL60       0.0241
    480 H           0.9835   16.1084   20.5059 H      60  UNL60       0.0241
    481 CL          3.6732   17.0488   -0.0831 Cl     61  UNL61      -0.1257
    482 C           2.1307   16.1671   -0.0831 C.3    61  UNL61       0.0198
    483 C           0.9662   17.1349   -0.0831 C.3    61  UNL61      -0.0517
    484 H           2.1061   15.5300   -0.9717 H      61  UNL61       0.0427
    485 H           2.1061   15.5300    0.8054 H      61  UNL61       0.0427
    486 H           0.0193   16.5856   -0.0831 H      61  UNL61       0.0241
    487 H           0.9835   17.7761    0.8043 H      61  UNL61       0.0241
    488 H           0.9835   17.7761   -0.9705 H      61  UNL61       0.0241
    489 CL          1.6732   17.0488    2.3032 Cl     62  UNL62      -0.1257
    490 C           0.1307   16.1671    2.3032 C.3    62  UNL62       0.0198
    491 C          -1.0338   17.1349    2.3032 C.3    62  UNL62      -0.0517
    492 H           0.1061   15.5300    1.4146 H      62  UNL62       0.0427
    493 H           0.1061   15.5300    3.1917 H      62  UNL62       0.0427
    494 H          -1.9807   16.5856    2.3032 H      62  UNL62       0.0241
    495 H          -1.0165   17.7761    3.1906 H      62  UNL62       0.0241
    496 H          -1.0165   17.7761    1.4158 H      62  UNL62       0.0241
    497 CL         -1.6071   17.0488    5.0454 Cl     63  UNL63      -0.1257
    498 C          -0.6839   16.1671    6.2811 C.3    63  UNL63       0.0198
    499 C           0.0130   17.1349    7.2141 C.3    63  UNL63      -0.0517
    500 H          -1.3811   15.5300    6.8326 H      63  UNL63       0.0427
    501 H           0.0426   15.5300    5.7691 H      63  UNL63       0.0427
    502 H           0.5797   16.5856    7.9727 H      63  UNL63       0.0241
    503 H           0.7136   17.7761    6.6692 H      63  UNL63       0.0241
    504 H          -0.7083   17.7761    7.7313 H      63  UNL63       0.0241
    505 CL          1.6732   16.0488    7.0757 Cl     64  UNL64      -0.1257
    506 C           0.1307   15.1671    7.0757 C.3    64  UNL64       0.0198
    507 C          -1.0338   16.1349    7.0757 C.3    64  UNL64      -0.0517
    508 H           0.1061   14.5300    6.1871 H      64  UNL64       0.0427
    509 H           0.1061   14.5300    7.9642 H      64  UNL64       0.0427
    510 H          -1.9807   15.5856    7.0757 H      64  UNL64       0.0241
    511 H          -1.0165   16.7761    7.9631 H      64  UNL64       0.0241
    512 H          -1.0165   16.7761    6.1883 H      64  UNL64       0.0241
    513 CL          1.6732   17.0488    9.4620 Cl     65  UNL65      -0.1257
    514 C           0.1307   16.1671    9.4620 C.3    65  UNL65       0.0198
    515 C          -1.0338   17.1349    9.4620 C.3    65  UNL65      -0.0517
    516 H           0.1061   15.5300    8.5734 H      65  UNL65       0.0427
    517 H           0.1061   15.5300   10.3505 H      65  UNL65       0.0427
    518 H          -1.9807   16.5856    9.4620 H      65  UNL65       0.0241
    519 H          -1.0165   17.7761   10.3494 H      65  UNL65       0.0241
    520 H          -1.0165   17.7761    8.5746 H      65  UNL65       0.0241
    521 CL          1.6732   16.0488   11.8482 Cl     66  UNL66      -0.1257
    522 C           0.1307   15.1671   11.8482 C.3    66  UNL66       0.0198
    523 C          -1.0338   16.1349   11.8482 C.3    66  UNL66      -0.0517
    524 H           0.1061   14.5300   10.9596 H      66  UNL66       0.0427
    525 H           0.1061   14.5300   12.7367 H      66  UNL66       0.0427
    526 H          -1.9807   15.5856   11.8482 H      66  UNL66       0.0241
    527 H          -1.0165   16.7761   12.7356 H      66  UNL66       0.0241
    528 H          -1.0165   16.7761   10.9608 H      66  UNL66       0.0241
    529 CL          0.3929   17.0488   13.8785 Cl     67  UNL67      -0.1257
    530 C           1.3161   16.1671   12.6428 C.3    67  UNL67       0.0198
    531 C           2.0130   17.1349   11.7098 C.3    67  UNL67      -0.0517
    532 H           2.0427   15.5300   13.1548 H      67  UNL67       0.0427
    533 H           0.6190   15.5300   12.0913 H      67  UNL67       0.0427
    534 H           2.5796   16.5856   10.9512 H      67  UNL67       0.0241
    535 H           1.2917   17.7761   11.1926 H      67  UNL67       0.0241
    536 H           2.7136   17.7761   12.2548 H      67  UNL67       0.0241
    537 CL          1.6732   17.0488   16.6208 Cl     68  UNL68      -0.1257
    538 C           0.1307   16.1671   16.6208 C.3    68  UNL68       0.0198
    539 C          -1.0338   17.1349   16.6208 C.3    68  UNL68      -0.0517
    540 H           0.1061   15.5300   15.7321 H      68  UNL68       0.0427
    541 H           0.1061   15.5300   17.5093 H      68  UNL68       0.0427
    542 H          -1.9807   16.5856   16.6208 H      68  UNL68       0.0241
    543 H          -1.0165   17.7761   17.5082 H      68  UNL68       0.0241
    544 H          -1.0165   17.7761   15.7334 H      68  UNL68       0.0241
    545 CL          1.6732   17.0488   19.0070 Cl     69  UNL69      -0.1257
    546 C           0.1307   16.1671   19.0070 C.3    69  UNL69       0.0198
    547 C          -1.0338   17.1349   19.0070 C.3    69  UNL69      -0.0517
    548 H           0.1061   15.5300   18.1184 H      69  UNL69       0.0427
    549 H           0.1061   15.5300   19.8955 H      69  UNL69       0.0427
    550 H          -1.9807   16.5856   19.0070 H      69  UNL69       0.0241
    551 H          -1.0165   17.7761   19.8944 H      69  UNL69       0.0241
    552 H          -1.0165   17.7761   18.1196 H      69  UNL69       0.0241
    553 CL          3.6732   17.0488   21.3933 Cl     70  UNL70      -0.1257
    554 C           2.1307   16.1671   21.3933 C.3    70  UNL70       0.0198
    555 C           0.9662   17.1349   21.3933 C.3    70  UNL70      -0.0517
    556 H           2.1061   15.5300   20.5047 H      70  UNL70       0.0427
    557 H           2.1061   15.5300   22.2818 H      70  UNL70       0.0427
    558 H           0.0193   16.5856   21.3933 H      70  UNL70       0.0241
    559 H           0.9835   17.7761   22.2807 H      70  UNL70       0.0241
    560 H           0.9835   17.7761   20.5059 H      70  UNL70       0.0241
    561 CL          7.5755   -0.6248   -0.0831 Cl     71  UNL71      -0.1257
    562 C           6.0330   -1.5065   -0.0831 C.3    71  UNL71       0.0198
    563 C           4.8685   -0.5387   -0.0831 C.3    71  UNL71      -0.0517
    564 H           6.0084   -2.1436   -0.9717 H      71  UNL71       0.0427
    565 H           6.0084   -2.1436    0.8054 H      71  UNL71       0.0427
    566 H           3.9216   -1.0880   -0.0831 H      71  UNL71       0.0241
    567 H           4.8858    0.1024    0.8043 H      71  UNL71       0.0241
    568 H           4.8858    0.1024   -0.9705 H      71  UNL71       0.0241
    569 CL          7.5755   -0.6248    2.3032 Cl     72  UNL72      -0.1257
    570 C           6.0330   -1.5065    2.3032 C.3    72  UNL72       0.0198
    571 C           4.8685   -0.5387    2.3032 C.3    72  UNL72      -0.0517
    572 H           6.0084   -2.1436    1.4146 H      72  UNL72       0.0427
    573 H           6.0084   -2.1436    3.1917 H      72  UNL72       0.0427
    574 H           3.9216   -1.0880    2.3032 H      72  UNL72       0.0241
    575 H           4.8858    0.1024    3.1906 H      72  UNL72       0.0241
    576 H           4.8858    0.1024    1.4158 H      72  UNL72       0.0241
    577 CL          7.5755   -0.6248    7.0757 Cl     73  UNL73      -0.1257
    578 C           6.0330   -1.5065    7.0757 C.3    73  UNL73       0.0198
    579 C           4.8685   -0.5387    7.0757 C.3    73  UNL73      -0.0517
    580 H           6.0084   -2.1436    6.1871 H      73  UNL73       0.0427
    581 H           6.0084   -2.1436    7.9642 H      73  UNL73       0.0427
    582 H           3.9216   -1.0880    7.0757 H      73  UNL73       0.0241
    583 H           4.8858    0.1024    7.9631 H      73  UNL73       0.0241
    584 H           4.8858    0.1024    6.1883 H      73  UNL73       0.0241
    585 CL          7.5755   -0.6248   11.8482 Cl     74  UNL74      -0.1257
    586 C           6.0330   -1.5065   11.8482 C.3    74  UNL74       0.0198
    587 C           4.8685   -0.5387   11.8482 C.3    74  UNL74      -0.0517
    588 H           6.0084   -2.1436   10.9596 H      74  UNL74       0.0427
    589 H           6.0084   -2.1436   12.7367 H      74  UNL74       0.0427
    590 H           3.9216   -1.0880   11.8482 H      74  UNL74       0.0241
    591 H           4.8858    0.1024   12.7356 H      74  UNL74       0.0241
    592 H           4.8858    0.1024   10.9608 H      74  UNL74       0.0241
    593 CL          7.5755   -0.6248   16.6208 Cl     75  UNL75      -0.1257
    594 C           6.0330   -1.5065   16.6208 C.3    75  UNL75       0.0198
    595 C           4.8685   -0.5387   16.6208 C.3    75  UNL75      -0.0517
    596 H           6.0084   -2.1436   15.7321 H      75  UNL75       0.0427
    597 H           6.0084   -2.1436   17.5093 H      75  UNL75       0.0427
    598 H           3.9216   -1.0880   16.6208 H      75  UNL75       0.0241
    599 H           4.8858    0.1024   17.5082 H      75  UNL75       0.0241
    600 H           4.8858    0.1024   15.7334 H      75  UNL75       0.0241
    601 CL          7.5755   -0.6248   19.0070 Cl     76  UNL76      -0.1257
    602 C           6.0330   -1.5065   19.0070 C.3    76  UNL76       0.0198
    603 C           4.8685   -0.5387   19.0070 C.3    76  UNL76      -0.0517
    604 H           6.0084   -2.1436   18.1184 H      76  UNL76       0.0427
    605 H           6.0084   -2.1436   19.8955 H      76  UNL76       0.0427
    606 H           3.9216   -1.0880   19.0070 H      76  UNL76       0.0241
    607 H           4.8858    0.1024   19.8944 H      76  UNL76       0.0241
    608 H           4.8858    0.1024   18.1196 H      76  UNL76       0.0241
    609 CL          2.2953    0.0428    1.5610 Cl     77  UNL77      -0.1257
    610 C           3.2184   -0.8389    0.3252 C.3    77  UNL77       0.0198
    611 C           3.9153    0.1289   -0.6077 C.3    77  UNL77      -0.0517
    612 H           3.9450   -1.4760    0.8373 H      77  UNL77       0.0427
    613 H           2.5213   -1.4760   -0.2262 H      77  UNL77       0.0427
    614 H           4.4820   -0.4204   -1.3664 H      77  UNL77       0.0241
    615 H           3.1940    0.7701   -1.1250 H      77  UNL77       0.0241
    616 H           4.6159    0.7701   -0.0628 H      77  UNL77       0.0241
    617 CL          7.5755    2.0428    2.3032 Cl     78  UNL78      -0.1257
    618 C           6.0330    1.1611    2.3032 C.3    78  UNL78       0.0198
    619 C           4.8685    2.1289    2.3032 C.3    78  UNL78      -0.0517
    620 H           6.0084    0.5240    1.4146 H      78  UNL78       0.0427
    621 H           6.0084    0.5240    3.1917 H      78  UNL78       0.0427
    622 H           3.9216    1.5796    2.3032 H      78  UNL78       0.0241
    623 H           4.8858    2.7701    3.1906 H      78  UNL78       0.0241
    624 H           4.8858    2.7701    1.4158 H      78  UNL78       0.0241
    625 CL          7.5755    2.0428    4.6895 Cl     79  UNL79      -0.1257
    626 C           6.0330    1.1611    4.6895 C.3    79  UNL79       0.0198
    627 C           4.8685    2.1289    4.6895 C.3    79  UNL79      -0.0517
    628 H           6.0084    0.5240    3.8008 H      79  UNL79       0.0427
    629 H           6.0084    0.5240    5.5780 H      79  UNL79       0.0427
    630 H           3.9216    1.5796    4.6895 H      79  UNL79       0.0241
    631 H           4.8858    2.7701    5.5768 H      79  UNL79       0.0241
    632 H           4.8858    2.7701    3.8021 H      79  UNL79       0.0241
    633 CL          7.5755    2.0428    7.0757 Cl     80  UNL80      -0.1257
    634 C           6.0330    1.1611    7.0757 C.3    80  UNL80       0.0198
    635 C           4.8685    2.1289    7.0757 C.3    80  UNL80      -0.0517
    636 H           6.0084    0.5240    6.1871 H      80  UNL80       0.0427
    637 H           6.0084    0.5240    7.9642 H      80  UNL80       0.0427
    638 H           3.9216    1.5796    7.0757 H      80  UNL80       0.0241
    639 H           4.8858    2.7701    7.9631 H      80  UNL80       0.0241
    640 H           4.8858    2.7701    6.1883 H      80  UNL80       0.0241
    641 CL          7.5755    2.0428    9.4620 Cl     81  UNL81      -0.1257
    642 C           6.0330    1.1611    9.4620 C.3    81  UNL81       0.0198
    643 C           4.8685    2.1289    9.4620 C.3    81  UNL81      -0.0517
    644 H           6.0084    0.5240    8.5734 H      81  UNL81       0.0427
    645 H           6.0084    0.5240   10.3505 H      81  UNL81       0.0427
    646 H           3.9216    1.5796    9.4620 H      81  UNL81       0.0241
    647 H           4.8858    2.7701   10.3494 H      81  UNL81       0.0241
    648 H           4.8858    2.7701    8.5746 H      81  UNL81       0.0241
    649 CL          7.5755    2.0428   11.8482 Cl     82  UNL82      -0.1257
    650 C           6.0330    1.1611   11.8482 C.3    82  UNL82       0.0198
    651 C           4.8685    2.1289   11.8482 C.3    82  UNL82      -0.0517
    652 H           6.0084    0.5240   10.9596 H      82  UNL82       0.0427
    653 H           6.0084    0.5240   12.7367 H      82  UNL82       0.0427
    654 H           3.9216    1.5796   11.8482 H      82  UNL82       0.0241
    655 H           4.8858    2.7701   12.7356 H      82  UNL82       0.0241
    656 H           4.8858    2.7701   10.9608 H      82  UNL82       0.0241
    657 CL          7.5755    2.0428   16.6208 Cl     83  UNL83      -0.1257
    658 C           6.0330    1.1611   16.6208 C.3    83  UNL83       0.0198
    659 C           4.8685    2.1289   16.6208 C.3    83  UNL83      -0.0517
    660 H           6.0084    0.5240   15.7321 H      83  UNL83       0.0427
    661 H           6.0084    0.5240   17.5093 H      83  UNL83       0.0427
    662 H           3.9216    1.5796   16.6208 H      83  UNL83       0.0241
    663 H           4.8858    2.7701   17.5082 H      83  UNL83       0.0241
    664 H           4.8858    2.7701   15.7334 H      83  UNL83       0.0241
    665 CL          5.5755   -0.5250   19.2916 Cl     84  UNL84      -0.1257
    666 C           4.0330    0.0027   18.5852 C.3    84  UNL84       0.0198
    667 C           2.8685   -0.5765   19.3606 C.3    84  UNL84      -0.0517
    668 H           4.0084    1.0958   18.6066 H      84  UNL84       0.0427
    669 H           4.0084   -0.3279   17.5431 H      84  UNL84       0.0427
    670 H           1.9216   -0.2478   18.9205 H      84  UNL84       0.0241
    671 H           2.8858   -1.6712   19.3432 H      84  UNL84       0.0241
    672 H           2.8858   -0.2493   20.4053 H      84  UNL84       0.0241
    673 CL          7.5755    2.0428   21.3933 Cl     85  UNL85      -0.1257
    674 C           6.0330    1.1611   21.3933 C.3    85  UNL85       0.0198
    675 C           4.8685    2.1289   21.3933 C.3    85  UNL85      -0.0517
    676 H           6.0084    0.5240   20.5047 H      85  UNL85       0.0427
    677 H           6.0084    0.5240   22.2818 H      85  UNL85       0.0427
    678 H           3.9216    1.5796   21.3933 H      85  UNL85       0.0241
    679 H           4.8858    2.7701   22.2807 H      85  UNL85       0.0241
    680 H           4.8858    2.7701   20.5059 H      85  UNL85       0.0241
    681 CL          7.5755    4.7105   -0.0831 Cl     86  UNL86      -0.1257
    682 C           6.0330    3.8288   -0.0831 C.3    86  UNL86       0.0198
    683 C           4.8685    4.7966   -0.0831 C.3    86  UNL86      -0.0517
    684 H           6.0084    3.1917   -0.9717 H      86  UNL86       0.0427
    685 H           6.0084    3.1917    0.8054 H      86  UNL86       0.0427
    686 H           3.9216    4.2473   -0.0831 H      86  UNL86       0.0241
    687 H           4.8858    5.4378    0.8043 H      86  UNL86       0.0241
    688 H           4.8858    5.4378   -0.9705 H      86  UNL86       0.0241
    689 CL          7.5755    4.7105    2.3032 Cl     87  UNL87      -0.1257
    690 C           6.0330    3.8288    2.3032 C.3    87  UNL87       0.0198
    691 C           4.8685    4.7966    2.3032 C.3    87  UNL87      -0.0517
    692 H           6.0084    3.1917    1.4146 H      87  UNL87       0.0427
    693 H           6.0084    3.1917    3.1917 H      87  UNL87       0.0427
    694 H           3.9216    4.2473    2.3032 H      87  UNL87       0.0241
    695 H           4.8858    5.4378    3.1906 H      87  UNL87       0.0241
    696 H           4.8858    5.4378    1.4158 H      87  UNL87       0.0241
    697 CL          2.2953    2.7105    6.3335 Cl     88  UNL88      -0.1257
    698 C           3.2184    1.8288    5.0977 C.3    88  UNL88       0.0198
    699 C           3.9153    2.7966    4.1648 C.3    88  UNL88      -0.0517
    700 H           3.9450    1.1917    5.6098 H      88  UNL88       0.0427
    701 H           2.5213    1.1917    4.5463 H      88  UNL88       0.0427
    702 H           4.4820    2.2473    3.4062 H      88  UNL88       0.0241
    703 H           3.1940    3.4378    3.6476 H      88  UNL88       0.0241
    704 H           4.6159    3.4378    4.7097 H      88  UNL88       0.0241
    705 CL          2.2953    2.7105    8.7198 Cl     89  UNL89      -0.1257
    706 C           3.2184    1.8288    7.4840 C.3    89  UNL89       0.0198
    707 C           3.9153    2.7966    6.5510 C.3    89  UNL89      -0.0517
    708 H           3.9450    1.1917    7.9961 H      89  UNL89       0.0427
    709 H           2.5213    1.1917    6.9325 H      89  UNL89       0.0427
    710 H           4.4820    2.2473    5.7924 H      89  UNL89       0.0241
    711 H           3.1940    3.4378    6.0338 H      89  UNL89       0.0241
    712 H           4.6159    3.4378    7.0960 H      89  UNL89       0.0241
    713 CL          2.2953    2.7105   11.1060 Cl     90  UNL90      -0.1257
    714 C           3.2184    1.8288    9.8702 C.3    90  UNL90       0.0198
    715 C           3.9153    2.7966    8.9373 C.3    90  UNL90      -0.0517
    716 H           3.9450    1.1917   10.3823 H      90  UNL90       0.0427
    717 H           2.5213    1.1917    9.3188 H      90  UNL90       0.0427
    718 H           4.4820    2.2473    8.1787 H      90  UNL90       0.0241
    719 H           3.1940    3.4378    8.4201 H      90  UNL90       0.0241
    720 H           4.6159    3.4378    9.4822 H      90  UNL90       0.0241
    721 CL          7.5755    4.7105   11.8482 Cl     91  UNL91      -0.1257
    722 C           6.0330    3.8288   11.8482 C.3    91  UNL91       0.0198
    723 C           4.8685    4.7966   11.8482 C.3    91  UNL91      -0.0517
    724 H           6.0084    3.1917   10.9596 H      91  UNL91       0.0427
    725 H           6.0084    3.1917   12.7367 H      91  UNL91       0.0427
    726 H           3.9216    4.2473   11.8482 H      91  UNL91       0.0241
    727 H           4.8858    5.4378   12.7356 H      91  UNL91       0.0241
    728 H           4.8858    5.4378   10.9608 H      91  UNL91       0.0241
    729 CL          7.5755    4.7105   14.2345 Cl     92  UNL92      -0.1257
    730 C           6.0330    3.8288   14.2345 C.3    92  UNL92       0.0198
    731 C           4.8685    4.7966   14.2345 C.3    92  UNL92      -0.0517
    732 H           6.0084    3.1917   13.3459 H      92  UNL92       0.0427
    733 H           6.0084    3.1917   15.1230 H      92  UNL92       0.0427
    734 H           3.9216    4.2473   14.2345 H      92  UNL92       0.0241
    735 H           4.8858    5.4378   15.1219 H      92  UNL92       0.0241
    736 H           4.8858    5.4378   13.3471 H      92  UNL92       0.0241
    737 CL          7.5755    4.7105   16.6208 Cl     93  UNL93      -0.1257
    738 C           6.0330    3.8288   16.6208 C.3    93  UNL93       0.0198
    739 C           4.8685    4.7966   16.6208 C.3    93  UNL93      -0.0517
    740 H           6.0084    3.1917   15.7321 H      93  UNL93       0.0427
    741 H           6.0084    3.1917   17.5093 H      93  UNL93       0.0427
    742 H           3.9216    4.2473   16.6208 H      93  UNL93       0.0241
    743 H           4.8858    5.4378   17.5082 H      93  UNL93       0.0241
    744 H           4.8858    5.4378   15.7334 H      93  UNL93       0.0241
    745 CL          7.5755    4.7105   19.0070 Cl     94  UNL94      -0.1257
    746 C           6.0330    3.8288   19.0070 C.3    94  UNL94       0.0198
    747 C           4.8685    4.7966   19.0070 C.3    94  UNL94      -0.0517
    748 H           6.0084    3.1917   18.1184 H      94  UNL94       0.0427
    749 H           6.0084    3.1917   19.8955 H      94  UNL94       0.0427
    750 H           3.9216    4.2473   19.0070 H      94  UNL94       0.0241
    751 H           4.8858    5.4378   19.8944 H      94  UNL94       0.0241
    752 H           4.8858    5.4378   18.1196 H      94  UNL94       0.0241
    753 CL          5.1544    1.2908   20.6557 Cl     95  UNL95      -0.1257
    754 C           3.7926    1.7474   21.7014 C.3    95  UNL95       0.0198
    755 C           3.1255    3.0049   21.1853 C.3    95  UNL95      -0.0517
    756 H           3.0862    0.9126   21.7194 H      95  UNL95       0.0427
    757 H           4.1799    1.9002   22.7126 H      95  UNL95       0.0427
    758 H           2.2877    3.2807   21.8337 H      95  UNL95       0.0241
    759 H           3.8265    3.8458   21.1650 H      95  UNL95       0.0241
    760 H           2.7342    2.8595   20.1731 H      95  UNL95       0.0241
    761 CL          2.2953    5.3781   -1.7272 Cl     96  UNL96      -0.1257
    762 C           3.2184    4.4964   -0.4914 C.3    96  UNL96       0.0198
    763 C           3.9153    5.4642    0.4416 C.3    96  UNL96      -0.0517
    764 H           2.5212    3.8593    0.0601 H      96  UNL96       0.0427
    765 H           3.9450    3.8593   -1.0034 H      96  UNL96       0.0427
    766 H           4.4820    4.9149    1.2002 H      96  UNL96       0.0241
    767 H           4.6159    6.1054   -0.1034 H      96  UNL96       0.0241
    768 H           3.1940    6.1054    0.9588 H      96  UNL96       0.0241
    769 CL          7.5755    7.3781    2.3032 Cl     97  UNL97      -0.1257
    770 C           6.0330    6.4964    2.3032 C.3    97  UNL97       0.0198
    771 C           4.8685    7.4642    2.3032 C.3    97  UNL97      -0.0517
    772 H           6.0084    5.8593    1.4146 H      97  UNL97       0.0427
    773 H           6.0084    5.8593    3.1917 H      97  UNL97       0.0427
    774 H           3.9216    6.9149    2.3032 H      97  UNL97       0.0241
    775 H           4.8858    8.1054    3.1906 H      97  UNL97       0.0241
    776 H           4.8858    8.1054    1.4158 H      97  UNL97       0.0241
    777 CL          7.5755    7.3781    4.6895 Cl     98  UNL98      -0.1257
    778 C           6.0330    6.4964    4.6895 C.3    98  UNL98       0.0198
    779 C           4.8685    7.4642    4.6895 C.3    98  UNL98      -0.0517
    780 H           6.0084    5.8593    3.8008 H      98  UNL98       0.0427
    781 H           6.0084    5.8593    5.5780 H      98  UNL98       0.0427
    782 H           3.9216    6.9149    4.6895 H      98  UNL98       0.0241
    783 H           4.8858    8.1054    5.5768 H      98  UNL98       0.0241
    784 H           4.8858    8.1054    3.8021 H      98  UNL98       0.0241
    785 CL          4.8677    5.5813    6.4034 Cl     99  UNL99      -0.1257
    786 C           3.5156    6.3214    7.2871 C.3    99  UNL99       0.0198
    787 C           3.4027    7.7930    6.9489 C.3    99  UNL99      -0.0517
    788 H           2.6009    5.7885    7.0123 H      99  UNL99       0.0427
    789 H           3.6946    6.1814    8.3568 H      99  UNL99       0.0427
    790 H           2.5682    8.2428    7.4963 H      99  UNL99       0.0241
    791 H           4.3148    8.3337    7.2218 H      99  UNL99       0.0241
    792 H           3.2226    7.9413    5.8791 H      99  UNL99       0.0241
    793 CL          7.5755    7.3781    9.4620 Cl    100  UNL100     -0.1257
    794 C           6.0330    6.4964    9.4620 C.3   100  UNL100      0.0198
    795 C           4.8685    7.4642    9.4620 C.3   100  UNL100     -0.0517
    796 H           6.0084    5.8593    8.5734 H     100  UNL100      0.0427
    797 H           6.0084    5.8593   10.3505 H     100  UNL100      0.0427
    798 H           3.9216    6.9149    9.4620 H     100  UNL100      0.0241
    799 H           4.8858    8.1054   10.3494 H     100  UNL100      0.0241
    800 H           4.8858    8.1054    8.5746 H     100  UNL100      0.0241
    801 CL          7.5755    7.3781   11.8482 Cl    101  UNL101     -0.1257
    802 C           6.0330    6.4964   11.8482 C.3   101  UNL101      0.0198
    803 C           4.8685    7.4642   11.8482 C.3   101  UNL101     -0.0517
    804 H           6.0084    5.8593   10.9596 H     101  UNL101      0.0427
    805 H           6.0084    5.8593   12.7367 H     101  UNL101      0.0427
    806 H           3.9216    6.9149   11.8482 H     101  UNL101      0.0241
    807 H           4.8858    8.1054   12.7356 H     101  UNL101      0.0241
    808 H           4.8858    8.1054   10.9608 H     101  UNL101      0.0241
    809 CL          2.2953    5.3781   12.5904 Cl    102  UNL102     -0.1257
    810 C           3.2184    4.4964   13.8262 C.3   102  UNL102      0.0198
    811 C           3.9153    5.4642   14.7591 C.3   102  UNL102     -0.0517
    812 H           2.5212    3.8593   14.3777 H     102  UNL102      0.0427
    813 H           3.9450    3.8593   13.3142 H     102  UNL102      0.0427
    814 H           4.4820    4.9149   15.5177 H     102  UNL102      0.0241
    815 H           4.6159    6.1054   14.2142 H     102  UNL102      0.0241
    816 H           3.1940    6.1054   15.2763 H     102  UNL102      0.0241
    817 CL          7.5755    7.3781   16.6208 Cl    103  UNL103     -0.1257
    818 C           6.0330    6.4964   16.6208 C.3   103  UNL103      0.0198
    819 C           4.8685    7.4642   16.6208 C.3   103  UNL103     -0.0517
    820 H           6.0084    5.8593   15.7321 H     103  UNL103      0.0427
    821 H           6.0084    5.8593   17.5093 H     103  UNL103      0.0427
    822 H           3.9216    6.9149   16.6208 H     103  UNL103      0.0241
    823 H           4.8858    8.1054   17.5082 H     103  UNL103      0.0241
    824 H           4.8858    8.1054   15.7334 H     103  UNL103      0.0241
    825 CL          5.5755    4.8103   19.2916 Cl    104  UNL104     -0.1257
    826 C           4.0330    5.3380   18.5852 C.3   104  UNL104      0.0198
    827 C           2.8685    4.7588   19.3606 C.3   104  UNL104     -0.0517
    828 H           4.0084    6.4312   18.6066 H     104  UNL104      0.0427
    829 H           4.0084    5.0074   17.5431 H     104  UNL104      0.0427
    830 H           1.9216    5.0875   18.9205 H     104  UNL104      0.0241
    831 H           2.8858    3.6641   19.3432 H     104  UNL104      0.0241
    832 H           2.8858    5.0860   20.4053 H     104  UNL104      0.0241
    833 CL          7.5755    7.3781   21.3933 Cl    105  UNL105     -0.1257
    834 C           6.0330    6.4964   21.3933 C.3   105  UNL105      0.0198
    835 C           4.8685    7.4642   21.3933 C.3   105  UNL105     -0.0517
    836 H           6.0084    5.8593   20.5047 H     105  UNL105      0.0427
    837 H           6.0084    5.8593   22.2818 H     105  UNL105      0.0427
    838 H           3.9216    6.9149   21.3933 H     105  UNL105      0.0241
    839 H           4.8858    8.1054   22.2807 H     105  UNL105      0.0241
    840 H           4.8858    8.1054   20.5059 H     105  UNL105      0.0241
    841 CL          5.5755    8.0458   -0.0831 Cl    106  UNL106     -0.1257
    842 C           4.0330    7.1641   -0.0831 C.3   106  UNL106      0.0198
    843 C           2.8685    8.1319   -0.0831 C.3   106  UNL106     -0.0517
    844 H           4.0084    6.5270   -0.9717 H     106  UNL106      0.0427
    845 H           4.0084    6.5270    0.8054 H     106  UNL106      0.0427
    846 H           1.9216    7.5826   -0.0831 H     106  UNL106      0.0241
    847 H           2.8858    8.7731    0.8043 H     106  UNL106      0.0241
    848 H           2.8858    8.7731   -0.9705 H     106  UNL106      0.0241
    849 CL          7.5755   10.0458    2.3032 Cl    107  UNL107     -0.1257
    850 C           6.0330    9.1641    2.3032 C.3   107  UNL107      0.0198
    851 C           4.8685   10.1319    2.3032 C.3   107  UNL107     -0.0517
    852 H           6.0084    8.5270    1.4146 H     107  UNL107      0.0427
    853 H           6.0084    8.5270    3.1917 H     107  UNL107      0.0427
    854 H           3.9216    9.5826    2.3032 H     107  UNL107      0.0241
    855 H           4.8858   10.7731    3.1906 H     107  UNL107      0.0241
    856 H           4.8858   10.7731    1.4158 H     107  UNL107      0.0241
    857 CL          5.5755    7.4780    4.9740 Cl    108  UNL108     -0.1257
    858 C           4.0330    8.0056    4.2676 C.3   108  UNL108      0.0198
    859 C           2.8685    7.4264    5.0430 C.3   108  UNL108     -0.0517
    860 H           4.0084    9.0988    4.2890 H     108  UNL108      0.0427
    861 H           4.0084    7.6751    3.2255 H     108  UNL108      0.0427
    862 H           1.9216    7.7552    4.6029 H     108  UNL108      0.0241
    863 H           2.8858    6.3318    5.0256 H     108  UNL108      0.0241
    864 H           2.8858    7.7537    6.0878 H     108  UNL108      0.0241
    865 CL          7.5755   10.0458    7.0757 Cl    109  UNL109     -0.1257
    866 C           6.0330    9.1641    7.0757 C.3   109  UNL109      0.0198
    867 C           4.8685   10.1319    7.0757 C.3   109  UNL109     -0.0517
    868 H           6.0084    8.5270    6.1871 H     109  UNL109      0.0427
    869 H           6.0084    8.5270    7.9642 H     109  UNL109      0.0427
    870 H           3.9216    9.5826    7.0757 H     109  UNL109      0.0241
    871 H           4.8858   10.7731    7.9631 H     109  UNL109      0.0241
    872 H           4.8858   10.7731    6.1883 H     109  UNL109      0.0241
    873 CL          2.2953    8.0458   11.1060 Cl    110  UNL110     -0.1257
    874 C           3.2184    7.1641    9.8702 C.3   110  UNL110      0.0198
    875 C           3.9153    8.1319    8.9373 C.3   110  UNL110     -0.0517
    876 H           3.9450    6.5270   10.3823 H     110  UNL110      0.0427
    877 H           2.5213    6.5270    9.3188 H     110  UNL110      0.0427
    878 H           4.4820    7.5826    8.1787 H     110  UNL110      0.0241
    879 H           3.1940    8.7731    8.4201 H     110  UNL110      0.0241
    880 H           4.6159    8.7731    9.4822 H     110  UNL110      0.0241
    881 CL          7.5755   10.0458   11.8482 Cl    111  UNL111     -0.1257
    882 C           6.0330    9.1641   11.8482 C.3   111  UNL111      0.0198
    883 C           4.8685   10.1319   11.8482 C.3   111  UNL111     -0.0517
    884 H           6.0084    8.5270   10.9596 H     111  UNL111      0.0427
    885 H           6.0084    8.5270   12.7367 H     111  UNL111      0.0427
    886 H           3.9216    9.5826   11.8482 H     111  UNL111      0.0241
    887 H           4.8858   10.7731   12.7356 H     111  UNL111      0.0241
    888 H           4.8858   10.7731   10.9608 H     111  UNL111      0.0241
    889 CL          5.5755    8.0458   14.2345 Cl    112  UNL112     -0.1257
    890 C           4.0330    7.1641   14.2345 C.3   112  UNL112      0.0198
    891 C           2.8685    8.1319   14.2345 C.3   112  UNL112     -0.0517
    892 H           4.0084    6.5270   13.3459 H     112  UNL112      0.0427
    893 H           4.0084    6.5270   15.1230 H     112  UNL112      0.0427
    894 H           1.9216    7.5826   14.2345 H     112  UNL112      0.0241
    895 H           2.8858    8.7731   15.1219 H     112  UNL112      0.0241
    896 H           2.8858    8.7731   13.3471 H     112  UNL112      0.0241
    897 CL          7.5755   10.0458   16.6208 Cl    113  UNL113     -0.1257
    898 C           6.0330    9.1641   16.6208 C.3   113  UNL113      0.0198
    899 C           4.8685   10.1319   16.6208 C.3   113  UNL113     -0.0517
    900 H           6.0084    8.5270   15.7321 H     113  UNL113      0.0427
    901 H           6.0084    8.5270   17.5093 H     113  UNL113      0.0427
    902 H           3.9216    9.5826   16.6208 H     113  UNL113      0.0241
    903 H           4.8858   10.7731   17.5082 H     113  UNL113      0.0241
    904 H           4.8858   10.7731   15.7334 H     113  UNL113      0.0241
    905 CL          7.5755   10.0458   19.0070 Cl    114  UNL114     -0.1257
    906 C           6.0330    9.1641   19.0070 C.3   114  UNL114      0.0198
    907 C           4.8685   10.1319   19.0070 C.3   114  UNL114     -0.0517
    908 H           6.0084    8.5270   18.1184 H     114  UNL114      0.0427
    909 H           6.0084    8.5270   19.8955 H     114  UNL114      0.0427
    910 H           3.9216    9.5826   19.0070 H     114  UNL114      0.0241
    911 H           4.8858   10.7731   19.8944 H     114  UNL114      0.0241
    912 H           4.8858   10.7731   18.1196 H     114  UNL114      0.0241
    913 CL          5.5755    7.4780   21.6778 Cl    115  UNL115     -0.1257
    914 C           4.0330    8.0056   20.9715 C.3   115  UNL115      0.0198
    915 C           2.8685    7.4264   21.7468 C.3   115  UNL115     -0.0517
    916 H           4.0084    9.0988   20.9928 H     115  UNL115      0.0427
    917 H           4.0084    7.6751   19.9293 H     115  UNL115      0.0427
    918 H           1.9216    7.7552   21.3067 H     115  UNL115      0.0241
    919 H           2.8858    6.3318   21.7294 H     115  UNL115      0.0241
    920 H           2.8858    7.7537   22.7916 H     115  UNL115      0.0241
    921 CL          7.5755   12.7135    2.3032 Cl    116  UNL116     -0.1257
    922 C           6.0330   11.8318    2.3032 C.3   116  UNL116      0.0198
    923 C           4.8685   12.7996    2.3032 C.3   116  UNL116     -0.0517
    924 H           6.0084   11.1947    1.4146 H     116  UNL116      0.0427
    925 H           6.0084   11.1947    3.1917 H     116  UNL116      0.0427
    926 H           3.9216   12.2503    2.3032 H     116  UNL116      0.0241
    927 H           4.8858   13.4408    3.1906 H     116  UNL116      0.0241
    928 H           4.8858   13.4408    1.4158 H     116  UNL116      0.0241
    929 CL          7.5755   12.7135    4.6895 Cl    117  UNL117     -0.1257
    930 C           6.0330   11.8318    4.6895 C.3   117  UNL117      0.0198
    931 C           4.8685   12.7996    4.6895 C.3   117  UNL117     -0.0517
    932 H           6.0084   11.1947    3.8008 H     117  UNL117      0.0427
    933 H           6.0084   11.1947    5.5780 H     117  UNL117      0.0427
    934 H           3.9216   12.2503    4.6895 H     117  UNL117      0.0241
    935 H           4.8858   13.4408    5.5768 H     117  UNL117      0.0241
    936 H           4.8858   13.4408    3.8021 H     117  UNL117      0.0241
    937 CL          7.5755   12.7135    7.0757 Cl    118  UNL118     -0.1257
    938 C           6.0330   11.8318    7.0757 C.3   118  UNL118      0.0198
    939 C           4.8685   12.7996    7.0757 C.3   118  UNL118     -0.0517
    940 H           6.0084   11.1947    6.1871 H     118  UNL118      0.0427
    941 H           6.0084   11.1947    7.9642 H     118  UNL118      0.0427
    942 H           3.9216   12.2503    7.0757 H     118  UNL118      0.0241
    943 H           4.8858   13.4408    7.9631 H     118  UNL118      0.0241
    944 H           4.8858   13.4408    6.1883 H     118  UNL118      0.0241
    945 CL          7.5755   12.7135    9.4620 Cl    119  UNL119     -0.1257
    946 C           6.0330   11.8318    9.4620 C.3   119  UNL119      0.0198
    947 C           4.8685   12.7996    9.4620 C.3   119  UNL119     -0.0517
    948 H           6.0084   11.1947    8.5734 H     119  UNL119      0.0427
    949 H           6.0084   11.1947   10.3505 H     119  UNL119      0.0427
    950 H           3.9216   12.2503    9.4620 H     119  UNL119      0.0241
    951 H           4.8858   13.4408   10.3494 H     119  UNL119      0.0241
    952 H           4.8858   13.4408    8.5746 H     119  UNL119      0.0241
    953 CL          7.5755   12.7135   11.8482 Cl    120  UNL120     -0.1257
    954 C           6.0330   11.8318   11.8482 C.3   120  UNL120      0.0198
    955 C           4.8685   12.7996   11.8482 C.3   120  UNL120     -0.0517
    956 H           6.0084   11.1947   10.9596 H     120  UNL120      0.0427
    957 H           6.0084   11.1947   12.7367 H     120  UNL120      0.0427
    958 H           3.9216   12.2503   11.8482 H     120  UNL120      0.0241
    959 H           4.8858   13.4408   12.7356 H     120  UNL120      0.0241
    960 H           4.8858   13.4408   10.9608 H     120  UNL120      0.0241
    961 CL          5.5755    8.7135   12.2345 Cl    121  UNL121     -0.1257
    962 C           4.0330    7.8318   12.2345 C.3   121  UNL121      0.0198
    963 C           2.8685    8.7996   12.2345 C.3   121  UNL121     -0.0517
    964 H           4.0084    7.1947   11.3459 H     121  UNL121      0.0427
    965 H           4.0084    7.1947   13.1230 H     121  UNL121      0.0427
    966 H           1.9216    8.2503   12.2345 H     121  UNL121      0.0241
    967 H           2.8858    9.4408   13.1219 H     121  UNL121      0.0241
    968 H           2.8858    9.4408   11.3471 H     121  UNL121      0.0241
    969 CL          7.5755   12.7135   16.6208 Cl    122  UNL122     -0.1257
    970 C           6.0330   11.8318   16.6208 C.3   122  UNL122      0.0198
    971 C           4.8685   12.7996   16.6208 C.3   122  UNL122     -0.0517
    972 H           6.0084   11.1947   15.7321 H     122  UNL122      0.0427
    973 H           6.0084   11.1947   17.5093 H     122  UNL122      0.0427
    974 H           3.9216   12.2503   16.6208 H     122  UNL122      0.0241
    975 H           4.8858   13.4408   17.5082 H     122  UNL122      0.0241
    976 H           4.8858   13.4408   15.7334 H     122  UNL122      0.0241
    977 CL          2.2953   10.7135   20.6511 Cl    123  UNL123     -0.1257
    978 C           3.2184    9.8318   19.4153 C.3   123  UNL123      0.0198
    979 C           3.9153   10.7996   18.4823 C.3   123  UNL123     -0.0517
    980 H           3.9450    9.1947   19.9274 H     123  UNL123      0.0427
    981 H           2.5213    9.1947   18.8638 H     123  UNL123      0.0427
    982 H           4.4820   10.2503   17.7237 H     123  UNL123      0.0241
    983 H           3.1940   11.4408   17.9651 H     123  UNL123      0.0241
    984 H           4.6159   11.4408   19.0273 H     123  UNL123      0.0241
    985 CL          7.5755   12.7135   22.3933 Cl    124  UNL124     -0.1257
    986 C           6.0330   11.8318   22.3933 C.3   124  UNL124      0.0198
    987 C           4.8685   12.7996   22.3933 C.3   124  UNL124     -0.0517
    988 H           6.0084   11.1947   21.5047 H     124  UNL124      0.0427
    989 H           6.0084   11.1947   23.2818 H     124  UNL124      0.0427
    990 H           3.9216   12.2503   22.3933 H     124  UNL124      0.0241
    991 H           4.8858   13.4408   23.2807 H     124  UNL124      0.0241
    992 H           4.8858   13.4408   21.5059 H     124  UNL124      0.0241
    993 CL          7.5755   15.3811   -0.0831 Cl    125  UNL125     -0.1257
    994 C           6.0330   14.4994   -0.0831 C.3   125  UNL125      0.0198
    995 C           4.8685   15.4672   -0.0831 C.3   125  UNL125     -0.0517
    996 H           6.0084   13.8623   -0.9717 H     125  UNL125      0.0427
    997 H           6.0084   13.8623    0.8054 H     125  UNL125      0.0427
    998 H           3.9216   14.9179   -0.0831 H     125  UNL125      0.0241
    999 H           4.8858   16.1084    0.8043 H     125  UNL125      0.0241
   1000 H           4.8858   16.1084   -0.9705 H     125  UNL125      0.0241
   1001 CL          7.5755   15.3811    4.3032 Cl    126  UNL126     -0.1257
   1002 C           6.0330   14.4994    4.3032 C.3   126  UNL126      0.0198
   1003 C           4.8685   15.4672    4.3032 C.3   126  UNL126     -0.0517
   1004 H           6.0084   13.8623    3.4146 H     126  UNL126      0.0427
   1005 H           6.0084   13.8623    5.1917 H     126  UNL126      0.0427
   1006 H           3.9216   14.9179    4.3032 H     126  UNL126      0.0241
   1007 H           4.8858   16.1084    5.1906 H     126  UNL126      0.0241
   1008 H           4.8858   16.1084    3.4158 H     126  UNL126      0.0241
   1009 CL          7.5755   13.3811    2.6895 Cl    127  UNL127     -0.1257
   1010 C           6.0330   12.4994    2.6895 C.3   127  UNL127      0.0198
   1011 C           4.8685   13.4672    2.6895 C.3   127  UNL127     -0.0517
   1012 H           6.0084   11.8623    1.8008 H     127  UNL127      0.0427
   1013 H           6.0084   11.8623    3.5780 H     127  UNL127      0.0427
   1014 H           3.9216   12.9179    2.6895 H     127  UNL127      0.0241
   1015 H           4.8858   14.1084    3.5768 H     127  UNL127      0.0241
   1016 H           4.8858   14.1084    1.8021 H     127  UNL127      0.0241
   1017 CL          7.5755   15.3811    7.0757 Cl    128  UNL128     -0.1257
   1018 C           6.0330   14.4994    7.0757 C.3   128  UNL128      0.0198
   1019 C           4.8685   15.4672    7.0757 C.3   128  UNL128     -0.0517
   1020 H           6.0084   13.8623    6.1871 H     128  UNL128      0.0427
   1021 H           6.0084   13.8623    7.9642 H     128  UNL128      0.0427
   1022 H           3.9216   14.9179    7.0757 H     128  UNL128      0.0241
   1023 H           4.8858   16.1084    7.9631 H     128  UNL128      0.0241
   1024 H           4.8858   16.1084    6.1883 H     128  UNL128      0.0241
   1025 CL          2.2953   13.3811    7.8179 Cl    129  UNL129     -0.1257
   1026 C           3.2184   12.4994    9.0537 C.3   129  UNL129      0.0198
   1027 C           3.9153   13.4672    9.9866 C.3   129  UNL129     -0.0517
   1028 H           2.5212   11.8623    9.6052 H     129  UNL129      0.0427
   1029 H           3.9450   11.8623    8.5416 H     129  UNL129      0.0427
   1030 H           4.4820   12.9179   10.7452 H     129  UNL129      0.0241
   1031 H           4.6159   14.1084    9.4417 H     129  UNL129      0.0241
   1032 H           3.1940   14.1084   10.5038 H     129  UNL129      0.0241
   1033 CL          7.5755   15.3811   11.8482 Cl    130  UNL130     -0.1257
   1034 C           6.0330   14.4994   11.8482 C.3   130  UNL130      0.0198
   1035 C           4.8685   15.4672   11.8482 C.3   130  UNL130     -0.0517
   1036 H           6.0084   13.8623   10.9596 H     130  UNL130      0.0427
   1037 H           6.0084   13.8623   12.7367 H     130  UNL130      0.0427
   1038 H           3.9216   14.9179   11.8482 H     130  UNL130      0.0241
   1039 H           4.8858   16.1084   12.7356 H     130  UNL130      0.0241
   1040 H           4.8858   16.1084   10.9608 H     130  UNL130      0.0241
   1041 CL          7.5755   15.3811   14.2345 Cl    131  UNL131     -0.1257
   1042 C           6.0330   14.4994   14.2345 C.3   131  UNL131      0.0198
   1043 C           4.8685   15.4672   14.2345 C.3   131  UNL131     -0.0517
   1044 H           6.0084   13.8623   13.3459 H     131  UNL131      0.0427
   1045 H           6.0084   13.8623   15.1230 H     131  UNL131      0.0427
   1046 H           3.9216   14.9179   14.2345 H     131  UNL131      0.0241
   1047 H           4.8858   16.1084   15.1219 H     131  UNL131      0.0241
   1048 H           4.8858   16.1084   13.3471 H     131  UNL131      0.0241
   1049 CL          7.5755   15.3811   18.6208 Cl    132  UNL132     -0.1257
   1050 C           6.0330   14.4994   18.6208 C.3   132  UNL132      0.0198
   1051 C           4.8685   15.4672   18.6208 C.3   132  UNL132     -0.0517
   1052 H           6.0084   13.8623   17.7321 H     132  UNL132      0.0427
   1053 H           6.0084   13.8623   19.5093 H     132  UNL132      0.0427
   1054 H           3.9216   14.9179   18.6208 H     132  UNL132      0.0241
   1055 H           4.8858   16.1084   19.5082 H     132  UNL132      0.0241
   1056 H           4.8858   16.1084   17.7334 H     132  UNL132      0.0241
   1057 CL          7.5755   13.3811   17.0070 Cl    133  UNL133     -0.1257
   1058 C           6.0330   12.4994   17.0070 C.3   133  UNL133      0.0198
   1059 C           4.8685   13.4672   17.0070 C.3   133  UNL133     -0.0517
   1060 H           6.0084   11.8623   16.1184 H     133  UNL133      0.0427
   1061 H           6.0084   11.8623   17.8955 H     133  UNL133      0.0427
   1062 H           3.9216   12.9179   17.0070 H     133  UNL133      0.0241
   1063 H           4.8858   14.1084   17.8944 H     133  UNL133      0.0241
   1064 H           4.8858   14.1084   16.1196 H     133  UNL133      0.0241
   1065 CL          7.5755   13.3811   22.3933 Cl    134  UNL134     -0.1257
   1066 C           6.0330   12.4994   22.3933 C.3   134  UNL134      0.0198
   1067 C           4.8685   13.4672   22.3933 C.3   134  UNL134     -0.0517
   1068 H           6.0084   11.8623   21.5047 H     134  UNL134      0.0427
   1069 H           6.0084   11.8623   23.2818 H     134  UNL134      0.0427
   1070 H           3.9216   12.9179   22.3933 H     134  UNL134      0.0241
   1071 H           4.8858   14.1084   23.2807 H     134  UNL134      0.0241
   1072 H           4.8858   14.1084   21.5059 H     134  UNL134      0.0241
   1073 CL          5.5755   15.4809    0.2015 Cl    135  UNL135     -0.1257
   1074 C           4.0330   16.0086   -0.5049 C.3   135  UNL135      0.0198
   1075 C           2.8685   15.4294    0.2705 C.3   135  UNL135     -0.0517
   1076 H           4.0084   17.1018   -0.4835 H     135  UNL135      0.0427
   1077 H           4.0084   15.6781   -1.5470 H     135  UNL135      0.0427
   1078 H           1.9216   15.7582   -0.1696 H     135  UNL135      0.0241
   1079 H           2.8858   14.3347    0.2531 H     135  UNL135      0.0241
   1080 H           2.8858   15.7566    1.3153 H     135  UNL135      0.0241
   1081 CL          7.5755   17.0488    2.3032 Cl    136  UNL136     -0.1257
   1082 C           6.0330   16.1671    2.3032 C.3   136  UNL136      0.0198
   1083 C           4.8685   17.1349    2.3032 C.3   136  UNL136     -0.0517
   1084 H           6.0084   15.5300    1.4146 H     136  UNL136      0.0427
   1085 H           6.0084   15.5300    3.1917 H     136  UNL136      0.0427
   1086 H           3.9216   16.5856    2.3032 H     136  UNL136      0.0241
   1087 H           4.8858   17.7761    3.1906 H     136  UNL136      0.0241
   1088 H           4.8858   17.7761    1.4158 H     136  UNL136      0.0241
   1089 CL          7.5755   17.0488    4.6895 Cl    137  UNL137     -0.1257
   1090 C           6.0330   16.1671    4.6895 C.3   137  UNL137      0.0198
   1091 C           4.8685   17.1349    4.6895 C.3   137  UNL137     -0.0517
   1092 H           6.0084   15.5300    3.8008 H     137  UNL137      0.0427
   1093 H           6.0084   15.5300    5.5780 H     137  UNL137      0.0427
   1094 H           3.9216   16.5856    4.6895 H     137  UNL137      0.0241
   1095 H           4.8858   17.7761    5.5768 H     137  UNL137      0.0241
   1096 H           4.8858   17.7761    3.8021 H     137  UNL137      0.0241
   1097 CL          7.5755   17.0488    7.0757 Cl    138  UNL138     -0.1257
   1098 C           6.0330   16.1671    7.0757 C.3   138  UNL138      0.0198
   1099 C           4.8685   17.1349    7.0757 C.3   138  UNL138     -0.0517
   1100 H           6.0084   15.5300    6.1871 H     138  UNL138      0.0427
   1101 H           6.0084   15.5300    7.9642 H     138  UNL138      0.0427
   1102 H           3.9216   16.5856    7.0757 H     138  UNL138      0.0241
   1103 H           4.8858   17.7761    7.9631 H     138  UNL138      0.0241
   1104 H           4.8858   17.7761    6.1883 H     138  UNL138      0.0241
   1105 CL          5.5755   16.0488    9.4620 Cl    139  UNL139     -0.1257
   1106 C           4.0330   15.1671    9.4620 C.3   139  UNL139      0.0198
   1107 C           2.8685   16.1349    9.4620 C.3   139  UNL139     -0.0517
   1108 H           4.0084   14.5300    8.5734 H     139  UNL139      0.0427
   1109 H           4.0084   14.5300   10.3505 H     139  UNL139      0.0427
   1110 H           1.9216   15.5856    9.4620 H     139  UNL139      0.0241
   1111 H           2.8858   16.7761   10.3494 H     139  UNL139      0.0241
   1112 H           2.8858   16.7761    8.5746 H     139  UNL139      0.0241
   1113 CL          7.5755   17.0488   11.8482 Cl    140  UNL140     -0.1257
   1114 C           6.0330   16.1671   11.8482 C.3   140  UNL140      0.0198
   1115 C           4.8685   17.1349   11.8482 C.3   140  UNL140     -0.0517
   1116 H           6.0084   15.5300   10.9596 H     140  UNL140      0.0427
   1117 H           6.0084   15.5300   12.7367 H     140  UNL140      0.0427
   1118 H           3.9216   16.5856   11.8482 H     140  UNL140      0.0241
   1119 H           4.8858   17.7761   12.7356 H     140  UNL140      0.0241
   1120 H           4.8858   17.7761   10.9608 H     140  UNL140      0.0241
   1121 CL          5.5755   15.4809   14.5191 Cl    141  UNL141     -0.1257
   1122 C           4.0330   16.0086   13.8127 C.3   141  UNL141      0.0198
   1123 C           2.8685   15.4294   14.5880 C.3   141  UNL141     -0.0517
   1124 H           4.0084   17.1018   13.8341 H     141  UNL141      0.0427
   1125 H           4.0084   15.6781   12.7705 H     141  UNL141      0.0427
   1126 H           1.9216   15.7582   14.1480 H     141  UNL141      0.0241
   1127 H           2.8858   14.3347   14.5707 H     141  UNL141      0.0241
   1128 H           2.8858   15.7566   15.6328 H     141  UNL141      0.0241
   1129 CL          7.5755   17.0488   16.6208 Cl    142  UNL142     -0.1257
   1130 C           6.0330   16.1671   16.6208 C.3   142  UNL142      0.0198
   1131 C           4.8685   17.1349   16.6208 C.3   142  UNL142     -0.0517
   1132 H           6.0084   15.5300   15.7321 H     142  UNL142      0.0427
   1133 H           6.0084   15.5300   17.5093 H     142  UNL142      0.0427
   1134 H           3.9216   16.5856   16.6208 H     142  UNL142      0.0241
   1135 H           4.8858   17.7761   17.5082 H     142  UNL142      0.0241
   1136 H           4.8858   17.7761   15.7334 H     142  UNL142      0.0241
   1137 CL          7.5755   17.0488   19.0070 Cl    143  UNL143     -0.1257
   1138 C           6.0330   16.1671   19.0070 C.3   143  UNL143      0.0198
   1139 C           4.8685   17.1349   19.0070 C.3   143  UNL143     -0.0517
   1140 H           6.0084   15.5300   18.1184 H     143  UNL143      0.0427
   1141 H           6.0084   15.5300   19.8955 H     143  UNL143      0.0427
   1142 H           3.9216   16.5856   19.0070 H     143  UNL143      0.0241
   1143 H           4.8858   17.7761   19.8944 H     143  UNL143      0.0241
   1144 H           4.8858   17.7761   18.1196 H     143  UNL143      0.0241
   1145 CL          5.5755   16.0488   21.3933 Cl    144  UNL144     -0.1257
   1146 C           4.0330   15.1671   21.3933 C.3   144  UNL144      0.0198
   1147 C           2.8685   16.1349   21.3933 C.3   144  UNL144     -0.0517
   1148 H           4.0084   14.5300   20.5047 H     144  UNL144      0.0427
   1149 H           4.0084   14.5300   22.2818 H     144  UNL144      0.0427
   1150 H           1.9216   15.5856   21.3933 H     144  UNL144      0.0241
   1151 H           2.8858   16.7761   22.2807 H     144  UNL144      0.0241
   1152 H           2.8858   16.7761   20.5059 H     144  UNL144      0.0241
   1153 CL         11.4779   -0.6248    4.6895 Cl    145  UNL145     -0.1257
   1154 C           9.9354   -1.5065    4.6895 C.3   145  UNL145      0.0198
   1155 C           8.7709   -0.5387    4.6895 C.3   145  UNL145     -0.0517
   1156 H           9.9108   -2.1436    3.8008 H     145  UNL145      0.0427
   1157 H           9.9108   -2.1436    5.5780 H     145  UNL145      0.0427
   1158 H           7.8240   -1.0880    4.6895 H     145  UNL145      0.0241
   1159 H           8.7882    0.1024    5.5768 H     145  UNL145      0.0241
   1160 H           8.7882    0.1024    3.8021 H     145  UNL145      0.0241
   1161 CL         11.4779   -0.6248    9.4620 Cl    146  UNL146     -0.1257
   1162 C           9.9354   -1.5065    9.4620 C.3   146  UNL146      0.0198
   1163 C           8.7709   -0.5387    9.4620 C.3   146  UNL146     -0.0517
   1164 H           9.9108   -2.1436    8.5734 H     146  UNL146      0.0427
   1165 H           9.9108   -2.1436   10.3505 H     146  UNL146      0.0427
   1166 H           7.8240   -1.0880    9.4620 H     146  UNL146      0.0241
   1167 H           8.7882    0.1024   10.3494 H     146  UNL146      0.0241
   1168 H           8.7882    0.1024    8.5746 H     146  UNL146      0.0241
   1169 CL         11.4779   -0.6248   14.2345 Cl    147  UNL147     -0.1257
   1170 C           9.9354   -1.5065   14.2345 C.3   147  UNL147      0.0198
   1171 C           8.7709   -0.5387   14.2345 C.3   147  UNL147     -0.0517
   1172 H           9.9108   -2.1436   13.3459 H     147  UNL147      0.0427
   1173 H           9.9108   -2.1436   15.1230 H     147  UNL147      0.0427
   1174 H           7.8240   -1.0880   14.2345 H     147  UNL147      0.0241
   1175 H           8.7882    0.1024   15.1219 H     147  UNL147      0.0241
   1176 H           8.7882    0.1024   13.3471 H     147  UNL147      0.0241
   1177 CL         11.4779    2.0428   -0.0831 Cl    148  UNL148     -0.1257
   1178 C           9.9354    1.1611   -0.0831 C.3   148  UNL148      0.0198
   1179 C           8.7709    2.1289   -0.0831 C.3   148  UNL148     -0.0517
   1180 H           9.9108    0.5240   -0.9717 H     148  UNL148      0.0427
   1181 H           9.9108    0.5240    0.8054 H     148  UNL148      0.0427
   1182 H           7.8240    1.5796   -0.0831 H     148  UNL148      0.0241
   1183 H           8.7882    2.7701    0.8043 H     148  UNL148      0.0241
   1184 H           8.7882    2.7701   -0.9705 H     148  UNL148      0.0241
   1185 CL          9.4779    0.0428    2.3032 Cl    149  UNL149     -0.1257
   1186 C           7.9354   -0.8389    2.3032 C.3   149  UNL149      0.0198
   1187 C           6.7709    0.1289    2.3032 C.3   149  UNL149     -0.0517
   1188 H           7.9108   -1.4760    1.4146 H     149  UNL149      0.0427
   1189 H           7.9108   -1.4760    3.1917 H     149  UNL149      0.0427
   1190 H           5.8240   -0.4204    2.3032 H     149  UNL149      0.0241
   1191 H           6.7882    0.7701    3.1906 H     149  UNL149      0.0241
   1192 H           6.7882    0.7701    1.4158 H     149  UNL149      0.0241
   1193 CL          6.1976    0.0428    3.0454 Cl    150  UNL150     -0.1257
   1194 C           7.1208   -0.8389    4.2811 C.3   150  UNL150      0.0198
   1195 C           7.8177    0.1289    5.2141 C.3   150  UNL150     -0.0517
   1196 H           6.4236   -1.4760    4.8326 H     150  UNL150      0.0427
   1197 H           7.8473   -1.4760    3.7691 H     150  UNL150      0.0427
   1198 H           8.3843   -0.4204    5.9727 H     150  UNL150      0.0241
   1199 H           8.5182    0.7701    4.6692 H     150  UNL150      0.0241
   1200 H           7.0964    0.7701    5.7313 H     150  UNL150      0.0241
   1201 CL         11.4779    2.0428    5.0757 Cl    151  UNL151     -0.1257
   1202 C           9.9354    1.1611    5.0757 C.3   151  UNL151      0.0198
   1203 C           8.7709    2.1289    5.0757 C.3   151  UNL151     -0.0517
   1204 H           9.9108    0.5240    4.1871 H     151  UNL151      0.0427
   1205 H           9.9108    0.5240    5.9642 H     151  UNL151      0.0427
   1206 H           7.8240    1.5796    5.0757 H     151  UNL151      0.0241
   1207 H           8.7882    2.7701    5.9631 H     151  UNL151      0.0241
   1208 H           8.7882    2.7701    4.1883 H     151  UNL151      0.0241
   1209 CL          9.4779   -0.5250    9.1774 Cl    152  UNL152     -0.1257
   1210 C           7.9354    0.0027    9.8837 C.3   152  UNL152      0.0198
   1211 C           6.7709   -0.5765    9.1084 C.3   152  UNL152     -0.0517
   1212 H           7.9108   -0.3280   10.9259 H     152  UNL152      0.0427
   1213 H           7.9108    1.0958    9.8624 H     152  UNL152      0.0427
   1214 H           5.8240   -0.2478    9.5485 H     152  UNL152      0.0241
   1215 H           6.7882   -0.2493    8.0636 H     152  UNL152      0.0241
   1216 H           6.7882   -1.6712    9.1258 H     152  UNL152      0.0241
   1217 CL         11.4779    2.0428    9.8482 Cl    153  UNL153     -0.1257
   1218 C           9.9354    1.1611    9.8482 C.3   153  UNL153      0.0198
   1219 C           8.7709    2.1289    9.8482 C.3   153  UNL153     -0.0517
   1220 H           9.9108    0.5240    8.9596 H     153  UNL153      0.0427
   1221 H           9.9108    0.5240   10.7367 H     153  UNL153      0.0427
   1222 H           7.8240    1.5796    9.8482 H     153  UNL153      0.0241
   1223 H           8.7882    2.7701   10.7356 H     153  UNL153      0.0241
   1224 H           8.7882    2.7701    8.9608 H     153  UNL153      0.0241
   1225 CL          9.4779    0.0428   14.2345 Cl    154  UNL154     -0.1257
   1226 C           7.9354   -0.8389   14.2345 C.3   154  UNL154      0.0198
   1227 C           6.7709    0.1289   14.2345 C.3   154  UNL154     -0.0517
   1228 H           7.9108   -1.4760   13.3459 H     154  UNL154      0.0427
   1229 H           7.9108   -1.4760   15.1230 H     154  UNL154      0.0427
   1230 H           5.8240   -0.4204   14.2345 H     154  UNL154      0.0241
   1231 H           6.7882    0.7701   15.1219 H     154  UNL154      0.0241
   1232 H           6.7882    0.7701   13.3471 H     154  UNL154      0.0241
   1233 CL         11.4779    2.0428   14.6208 Cl    155  UNL155     -0.1257
   1234 C           9.9354    1.1611   14.6208 C.3   155  UNL155      0.0198
   1235 C           8.7709    2.1289   14.6208 C.3   155  UNL155     -0.0517
   1236 H           9.9108    0.5240   13.7321 H     155  UNL155      0.0427
   1237 H           9.9108    0.5240   15.5093 H     155  UNL155      0.0427
   1238 H           7.8240    1.5796   14.6208 H     155  UNL155      0.0241
   1239 H           8.7882    2.7701   15.5082 H     155  UNL155      0.0241
   1240 H           8.7882    2.7701   13.7334 H     155  UNL155      0.0241
   1241 CL         11.4779    2.0428   19.0070 Cl    156  UNL156     -0.1257
   1242 C           9.9354    1.1611   19.0070 C.3   156  UNL156      0.0198
   1243 C           8.7709    2.1289   19.0070 C.3   156  UNL156     -0.0517
   1244 H           9.9108    0.5240   18.1184 H     156  UNL156      0.0427
   1245 H           9.9108    0.5240   19.8955 H     156  UNL156      0.0427
   1246 H           7.8240    1.5796   19.0070 H     156  UNL156      0.0241
   1247 H           8.7882    2.7701   19.8944 H     156  UNL156      0.0241
   1248 H           8.7882    2.7701   18.1196 H     156  UNL156      0.0241
   1249 CL          9.4779    2.1426    0.2015 Cl    157  UNL157     -0.1257
   1250 C           7.9354    2.6703   -0.5049 C.3   157  UNL157      0.0198
   1251 C           6.7709    2.0911    0.2705 C.3   157  UNL157     -0.0517
   1252 H           7.9108    3.7635   -0.4835 H     157  UNL157      0.0427
   1253 H           7.9108    2.3398   -1.5470 H     157  UNL157      0.0427
   1254 H           5.8240    2.4199   -0.1696 H     157  UNL157      0.0241
   1255 H           6.7882    0.9964    0.2531 H     157  UNL157      0.0241
   1256 H           6.7882    2.4183    1.3153 H     157  UNL157      0.0241
   1257 CL          9.4779    2.7105    2.3032 Cl    158  UNL158     -0.1257
   1258 C           7.9354    1.8288    2.3032 C.3   158  UNL158      0.0198
   1259 C           6.7709    2.7966    2.3032 C.3   158  UNL158     -0.0517
   1260 H           7.9108    1.1917    1.4146 H     158  UNL158      0.0427
   1261 H           7.9108    1.1917    3.1917 H     158  UNL158      0.0427
   1262 H           5.8240    2.2473    2.3032 H     158  UNL158      0.0241
   1263 H           6.7882    3.4378    3.1906 H     158  UNL158      0.0241
   1264 H           6.7882    3.4378    1.4158 H     158  UNL158      0.0241
   1265 CL         11.4779    4.7105    4.6895 Cl    159  UNL159     -0.1257
   1266 C           9.9354    3.8288    4.6895 C.3   159  UNL159      0.0198
   1267 C           8.7709    4.7966    4.6895 C.3   159  UNL159     -0.0517
   1268 H           9.9108    3.1917    3.8008 H     159  UNL159      0.0427
   1269 H           9.9108    3.1917    5.5780 H     159  UNL159      0.0427
   1270 H           7.8240    4.2473    4.6895 H     159  UNL159      0.0241
   1271 H           8.7882    5.4378    5.5768 H     159  UNL159      0.0241
   1272 H           8.7882    5.4378    3.8021 H     159  UNL159      0.0241
   1273 CL         11.4779    4.7105    7.0757 Cl    160  UNL160     -0.1257
   1274 C           9.9354    3.8288    7.0757 C.3   160  UNL160      0.0198
   1275 C           8.7709    4.7966    7.0757 C.3   160  UNL160     -0.0517
   1276 H           9.9108    3.1917    6.1871 H     160  UNL160      0.0427
   1277 H           9.9108    3.1917    7.9642 H     160  UNL160      0.0427
   1278 H           7.8240    4.2473    7.0757 H     160  UNL160      0.0241
   1279 H           8.7882    5.4378    7.9631 H     160  UNL160      0.0241
   1280 H           8.7882    5.4378    6.1883 H     160  UNL160      0.0241
   1281 CL         11.4779    4.7105    9.4620 Cl    161  UNL161     -0.1257
   1282 C           9.9354    3.8288    9.4620 C.3   161  UNL161      0.0198
   1283 C           8.7709    4.7966    9.4620 C.3   161  UNL161     -0.0517
   1284 H           9.9108    3.1917    8.5734 H     161  UNL161      0.0427
   1285 H           9.9108    3.1917   10.3505 H     161  UNL161      0.0427
   1286 H           7.8240    4.2473    9.4620 H     161  UNL161      0.0241
   1287 H           8.7882    5.4378   10.3494 H     161  UNL161      0.0241
   1288 H           8.7882    5.4378    8.5746 H     161  UNL161      0.0241
   1289 CL         11.4779    2.7105    9.8482 Cl    162  UNL162     -0.1257
   1290 C           9.9354    1.8288    9.8482 C.3   162  UNL162      0.0198
   1291 C           8.7709    2.7966    9.8482 C.3   162  UNL162     -0.0517
   1292 H           9.9108    1.1917    8.9596 H     162  UNL162      0.0427
   1293 H           9.9108    1.1917   10.7367 H     162  UNL162      0.0427
   1294 H           7.8240    2.2473    9.8482 H     162  UNL162      0.0241
   1295 H           8.7882    3.4378   10.7356 H     162  UNL162      0.0241
   1296 H           8.7882    3.4378    8.9608 H     162  UNL162      0.0241
   1297 CL          8.4822    0.4986   12.2345 Cl    163  UNL163     -0.1257
   1298 C           8.6990    2.2620   12.2345 C.3   163  UNL163      0.0198
   1299 C          10.1712    2.6158   12.2345 C.3   163  UNL163     -0.0517
   1300 H           8.2033    2.6630   11.3459 H     163  UNL163      0.0427
   1301 H           8.2033    2.6630   13.1230 H     163  UNL163      0.0427
   1302 H          10.2978    3.7031   12.2345 H     163  UNL163      0.0241
   1303 H          10.6746    2.2182   13.1219 H     163  UNL163      0.0241
   1304 H          10.6746    2.2182   11.3471 H     163  UNL163      0.0241
   1305 CL         11.4779    2.7105   14.6208 Cl    164  UNL164     -0.1257
   1306 C           9.9354    1.8288   14.6208 C.3   164  UNL164      0.0198
   1307 C           8.7709    2.7966   14.6208 C.3   164  UNL164     -0.0517
   1308 H           9.9108    1.1917   13.7321 H     164  UNL164      0.0427
   1309 H           9.9108    1.1917   15.5093 H     164  UNL164      0.0427
   1310 H           7.8240    2.2473   14.6208 H     164  UNL164      0.0241
   1311 H           8.7882    3.4378   15.5082 H     164  UNL164      0.0241
   1312 H           8.7882    3.4378   13.7334 H     164  UNL164      0.0241
   1313 CL          9.4779    2.1426   19.2916 Cl    165  UNL165     -0.1257
   1314 C           7.9354    2.6703   18.5852 C.3   165  UNL165      0.0198
   1315 C           6.7709    2.0911   19.3606 C.3   165  UNL165     -0.0517
   1316 H           7.9108    3.7635   18.6066 H     165  UNL165      0.0427
   1317 H           7.9108    2.3398   17.5431 H     165  UNL165      0.0427
   1318 H           5.8240    2.4199   18.9205 H     165  UNL165      0.0241
   1319 H           6.7882    0.9964   19.3432 H     165  UNL165      0.0241
   1320 H           6.7882    2.4183   20.4053 H     165  UNL165      0.0241
   1321 CL          9.4779    2.7105   22.3933 Cl    166  UNL166     -0.1257
   1322 C           7.9354    1.8288   22.3933 C.3   166  UNL166      0.0198
   1323 C           6.7709    2.7966   22.3933 C.3   166  UNL166     -0.0517
   1324 H           7.9108    1.1917   21.5047 H     166  UNL166      0.0427
   1325 H           7.9108    1.1917   23.2818 H     166  UNL166      0.0427
   1326 H           5.8240    2.2473   22.3933 H     166  UNL166      0.0241
   1327 H           6.7882    3.4378   23.2807 H     166  UNL166      0.0241
   1328 H           6.7882    3.4378   21.5059 H     166  UNL166      0.0241
   1329 CL         11.4779    7.3781   -0.0831 Cl    167  UNL167     -0.1257
   1330 C           9.9354    6.4964   -0.0831 C.3   167  UNL167      0.0198
   1331 C           8.7709    7.4642   -0.0831 C.3   167  UNL167     -0.0517
   1332 H           9.9108    5.8593   -0.9717 H     167  UNL167      0.0427
   1333 H           9.9108    5.8593    0.8054 H     167  UNL167      0.0427
   1334 H           7.8240    6.9149   -0.0831 H     167  UNL167      0.0241
   1335 H           8.7882    8.1054    0.8043 H     167  UNL167      0.0241
   1336 H           8.7882    8.1054   -0.9705 H     167  UNL167      0.0241
   1337 CL          9.4779    5.3781    2.3032 Cl    168  UNL168     -0.1257
   1338 C           7.9354    4.4964    2.3032 C.3   168  UNL168      0.0198
   1339 C           6.7709    5.4642    2.3032 C.3   168  UNL168     -0.0517
   1340 H           7.9108    3.8593    1.4146 H     168  UNL168      0.0427
   1341 H           7.9108    3.8593    3.1917 H     168  UNL168      0.0427
   1342 H           5.8240    4.9149    2.3032 H     168  UNL168      0.0241
   1343 H           6.7882    6.1054    3.1906 H     168  UNL168      0.0241
   1344 H           6.7882    6.1054    1.4158 H     168  UNL168      0.0241
   1345 CL          9.4779    4.8103    4.4048 Cl    169  UNL169     -0.1257
   1346 C           7.9354    5.3380    5.1112 C.3   169  UNL169      0.0198
   1347 C           6.7709    4.7588    4.3359 C.3   169  UNL169     -0.0517
   1348 H           7.9108    5.0074    6.1534 H     169  UNL169      0.0427
   1349 H           7.9108    6.4311    5.0899 H     169  UNL169      0.0427
   1350 H           5.8240    5.0875    4.7759 H     169  UNL169      0.0241
   1351 H           6.7882    5.0860    3.2911 H     169  UNL169      0.0241
   1352 H           6.7882    3.6641    4.3532 H     169  UNL169      0.0241
   1353 CL          6.1976    5.3781    5.4316 Cl    170  UNL170     -0.1257
   1354 C           7.1208    4.4964    6.6674 C.3   170  UNL170      0.0198
   1355 C           7.8177    5.4642    7.6003 C.3   170  UNL170     -0.0517
   1356 H           6.4236    3.8593    7.2189 H     170  UNL170      0.0427
   1357 H           7.8473    3.8593    6.1554 H     170  UNL170      0.0427
   1358 H           8.3843    4.9149    8.3590 H     170  UNL170      0.0241
   1359 H           8.5182    6.1054    7.0554 H     170  UNL170      0.0241
   1360 H           7.0964    6.1054    8.1176 H     170  UNL170      0.0241
   1361 CL         11.4779    7.3781    7.4620 Cl    171  UNL171     -0.1257
   1362 C           9.9354    6.4964    7.4620 C.3   171  UNL171      0.0198
   1363 C           8.7709    7.4642    7.4620 C.3   171  UNL171     -0.0517
   1364 H           9.9108    5.8593    6.5734 H     171  UNL171      0.0427
   1365 H           9.9108    5.8593    8.3505 H     171  UNL171      0.0427
   1366 H           7.8240    6.9149    7.4620 H     171  UNL171      0.0241
   1367 H           8.7882    8.1054    8.3494 H     171  UNL171      0.0241
   1368 H           8.7882    8.1054    6.5746 H     171  UNL171      0.0241
   1369 CL          9.4779    5.3781   11.8482 Cl    172  UNL172     -0.1257
   1370 C           7.9354    4.4964   11.8482 C.3   172  UNL172      0.0198
   1371 C           6.7709    5.4642   11.8482 C.3   172  UNL172     -0.0517
   1372 H           7.9108    3.8593   10.9596 H     172  UNL172      0.0427
   1373 H           7.9108    3.8593   12.7367 H     172  UNL172      0.0427
   1374 H           5.8240    4.9149   11.8482 H     172  UNL172      0.0241
   1375 H           6.7882    6.1054   12.7356 H     172  UNL172      0.0241
   1376 H           6.7882    6.1054   10.9608 H     172  UNL172      0.0241
   1377 CL          9.4779    6.8103   13.9499 Cl    173  UNL173     -0.1257
   1378 C           7.9354    7.3380   14.6563 C.3   173  UNL173      0.0198
   1379 C           6.7709    6.7588   13.8809 C.3   173  UNL173     -0.0517
   1380 H           7.9108    7.0074   15.6985 H     173  UNL173      0.0427
   1381 H           7.9108    8.4311   14.6349 H     173  UNL173      0.0427
   1382 H           5.8240    7.0875   14.3210 H     173  UNL173      0.0241
   1383 H           6.7882    7.0860   12.8361 H     173  UNL173      0.0241
   1384 H           6.7882    5.6641   13.8983 H     173  UNL173      0.0241
   1385 CL         11.4779    7.3781   18.6208 Cl    174  UNL174     -0.1257
   1386 C           9.9354    6.4964   18.6208 C.3   174  UNL174      0.0198
   1387 C           8.7709    7.4642   18.6208 C.3   174  UNL174     -0.0517
   1388 H           9.9108    5.8593   17.7321 H     174  UNL174      0.0427
   1389 H           9.9108    5.8593   19.5093 H     174  UNL174      0.0427
   1390 H           7.8240    6.9149   18.6208 H     174  UNL174      0.0241
   1391 H           8.7882    8.1054   19.5082 H     174  UNL174      0.0241
   1392 H           8.7882    8.1054   17.7334 H     174  UNL174      0.0241
   1393 CL          8.1976    5.3781   18.6511 Cl    175  UNL175     -0.1257
   1394 C           9.1207    4.4964   17.4153 C.3   175  UNL175      0.0198
   1395 C           9.8176    5.4642   16.4823 C.3   175  UNL175     -0.0517
   1396 H           9.8474    3.8593   17.9274 H     175  UNL175      0.0427
   1397 H           8.4236    3.8593   16.8638 H     175  UNL175      0.0427
   1398 H          10.3843    4.9149   15.7237 H     175  UNL175      0.0241
   1399 H           9.0963    6.1054   15.9651 H     175  UNL175      0.0241
   1400 H          10.5182    6.1054   17.0273 H     175  UNL175      0.0241
   1401 CL          9.4779    3.3781   22.3933 Cl    176  UNL176     -0.1257
   1402 C           7.9354    2.4964   22.3933 C.3   176  UNL176      0.0198
   1403 C           6.7709    3.4642   22.3933 C.3   176  UNL176     -0.0517
   1404 H           7.9108    1.8593   21.5047 H     176  UNL176      0.0427
   1405 H           7.9108    1.8593   23.2818 H     176  UNL176      0.0427
   1406 H           5.8240    2.9149   22.3933 H     176  UNL176      0.0241
   1407 H           6.7882    4.1054   23.2807 H     176  UNL176      0.0241
   1408 H           6.7882    4.1054   21.5059 H     176  UNL176      0.0241
   1409 CL         11.4779   10.0458   -0.0831 Cl    177  UNL177     -0.1257
   1410 C           9.9354    9.1641   -0.0831 C.3   177  UNL177      0.0198
   1411 C           8.7709   10.1319   -0.0831 C.3   177  UNL177     -0.0517
   1412 H           9.9108    8.5270   -0.9717 H     177  UNL177      0.0427
   1413 H           9.9108    8.5270    0.8054 H     177  UNL177      0.0427
   1414 H           7.8240    9.5826   -0.0831 H     177  UNL177      0.0241
   1415 H           8.7882   10.7731    0.8043 H     177  UNL177      0.0241
   1416 H           8.7882   10.7731   -0.9705 H     177  UNL177      0.0241
   1417 CL          9.4779    8.0458    2.3032 Cl    178  UNL178     -0.1257
   1418 C           7.9354    7.1641    2.3032 C.3   178  UNL178      0.0198
   1419 C           6.7709    8.1319    2.3032 C.3   178  UNL178     -0.0517
   1420 H           7.9108    6.5270    1.4146 H     178  UNL178      0.0427
   1421 H           7.9108    6.5270    3.1917 H     178  UNL178      0.0427
   1422 H           5.8240    7.5826    2.3032 H     178  UNL178      0.0241
   1423 H           6.7882    8.7731    3.1906 H     178  UNL178      0.0241
   1424 H           6.7882    8.7731    1.4158 H     178  UNL178      0.0241
   1425 CL         11.6779   11.0458    4.6895 Cl    179  UNL179     -0.1257
   1426 C          10.1354   10.1641    4.6895 C.3   179  UNL179      0.0198
   1427 C           8.9709   11.1319    4.6895 C.3   179  UNL179     -0.0517
   1428 H          10.1108    9.5270    3.8008 H     179  UNL179      0.0427
   1429 H          10.1108    9.5270    5.5780 H     179  UNL179      0.0427
   1430 H           8.0240   10.5826    4.6895 H     179  UNL179      0.0241
   1431 H           8.9882   11.7731    5.5768 H     179  UNL179      0.0241
   1432 H           8.9882   11.7731    3.8021 H     179  UNL179      0.0241
   1433 CL         11.4779    7.4780    5.3603 Cl    180  UNL180     -0.1257
   1434 C           9.9354    8.0056    4.6539 C.3   180  UNL180      0.0198
   1435 C           8.7709    7.4264    5.4293 C.3   180  UNL180     -0.0517
   1436 H           9.9108    9.0988    4.6753 H     180  UNL180      0.0427
   1437 H           9.9108    7.6751    3.6118 H     180  UNL180      0.0427
   1438 H           7.8240    7.7552    4.9892 H     180  UNL180      0.0241
   1439 H           8.7882    6.3318    5.4119 H     180  UNL180      0.0241
   1440 H           8.7882    7.7537    6.4740 H     180  UNL180      0.0241
   1441 CL         11.4779   10.0458    9.4620 Cl    181  UNL181     -0.1257
   1442 C           9.9354    9.1641    9.4620 C.3   181  UNL181      0.0198
   1443 C           8.7709   10.1319    9.4620 C.3   181  UNL181     -0.0517
   1444 H           9.9108    8.5270    8.5734 H     181  UNL181      0.0427
   1445 H           9.9108    8.5270   10.3505 H     181  UNL181      0.0427
   1446 H           7.8240    9.5826    9.4620 H     181  UNL181      0.0241
   1447 H           8.7882   10.7731   10.3494 H     181  UNL181      0.0241
   1448 H           8.7882   10.7731    8.5746 H     181  UNL181      0.0241
   1449 CL          9.4779    8.0458   11.8482 Cl    182  UNL182     -0.1257
   1450 C           7.9354    7.1641   11.8482 C.3   182  UNL182      0.0198
   1451 C           6.7709    8.1319   11.8482 C.3   182  UNL182     -0.0517
   1452 H           7.9108    6.5270   10.9596 H     182  UNL182      0.0427
   1453 H           7.9108    6.5270   12.7367 H     182  UNL182      0.0427
   1454 H           5.8240    7.5826   11.8482 H     182  UNL182      0.0241
   1455 H           6.7882    8.7731   12.7356 H     182  UNL182      0.0241
   1456 H           6.7882    8.7731   10.9608 H     182  UNL182      0.0241
   1457 CL         11.4779   10.0458   14.2345 Cl    183  UNL183     -0.1257
   1458 C           9.9354    9.1641   14.2345 C.3   183  UNL183      0.0198
   1459 C           8.7709   10.1319   14.2345 C.3   183  UNL183     -0.0517
   1460 H           9.9108    8.5270   13.3459 H     183  UNL183      0.0427
   1461 H           9.9108    8.5270   15.1230 H     183  UNL183      0.0427
   1462 H           7.8240    9.5826   14.2345 H     183  UNL183      0.0241
   1463 H           8.7882   10.7731   15.1219 H     183  UNL183      0.0241
   1464 H           8.7882   10.7731   13.3471 H     183  UNL183      0.0241
   1465 CL         11.4779   10.0458   18.6208 Cl    184  UNL184     -0.1257
   1466 C           9.9354    9.1641   18.6208 C.3   184  UNL184      0.0198
   1467 C           8.7709   10.1319   18.6208 C.3   184  UNL184     -0.0517
   1468 H           9.9108    8.5270   17.7321 H     184  UNL184      0.0427
   1469 H           9.9108    8.5270   19.5093 H     184  UNL184      0.0427
   1470 H           7.8240    9.5826   18.6208 H     184  UNL184      0.0241
   1471 H           8.7882   10.7731   19.5082 H     184  UNL184      0.0241
   1472 H           8.7882   10.7731   17.7334 H     184  UNL184      0.0241
   1473 CL         11.4779    8.0458   17.0070 Cl    185  UNL185     -0.1257
   1474 C           9.9354    7.1641   17.0070 C.3   185  UNL185      0.0198
   1475 C           8.7709    8.1319   17.0070 C.3   185  UNL185     -0.0517
   1476 H           9.9108    6.5270   16.1184 H     185  UNL185      0.0427
   1477 H           9.9108    6.5270   17.8955 H     185  UNL185      0.0427
   1478 H           7.8240    7.5826   17.0070 H     185  UNL185      0.0241
   1479 H           8.7882    8.7731   17.8944 H     185  UNL185      0.0241
   1480 H           8.7882    8.7731   16.1196 H     185  UNL185      0.0241
   1481 CL         11.4779   10.0458   21.3933 Cl    186  UNL186     -0.1257
   1482 C           9.9354    9.1641   21.3933 C.3   186  UNL186      0.0198
   1483 C           8.7709   10.1319   21.3933 C.3   186  UNL186     -0.0517
   1484 H           9.9108    8.5270   20.5047 H     186  UNL186      0.0427
   1485 H           9.9108    8.5270   22.2818 H     186  UNL186      0.0427
   1486 H           7.8240    9.5826   21.3933 H     186  UNL186      0.0241
   1487 H           8.7882   10.7731   22.2807 H     186  UNL186      0.0241
   1488 H           8.7882   10.7731   20.5059 H     186  UNL186      0.0241
   1489 CL         11.4779   12.7135   -0.4693 Cl    187  UNL187     -0.1257
   1490 C           9.9354   11.8318   -0.4693 C.3   187  UNL187      0.0198
   1491 C           8.7709   12.7996   -0.4693 C.3   187  UNL187     -0.0517
   1492 H           9.9108   11.1947   -1.3579 H     187  UNL187      0.0427
   1493 H           9.9108   11.1947    0.4192 H     187  UNL187      0.0427
   1494 H           7.8240   12.2503   -0.4693 H     187  UNL187      0.0241
   1495 H           8.7882   13.4408    0.4181 H     187  UNL187      0.0241
   1496 H           8.7882   13.4408   -1.3567 H     187  UNL187      0.0241
   1497 CL          9.4779   10.1456   -0.3677 Cl    188  UNL188     -0.1257
   1498 C           7.9354   10.6733    0.3387 C.3   188  UNL188      0.0198
   1499 C           6.7709   10.0941   -0.4367 C.3   188  UNL188     -0.0517
   1500 H           7.9108   10.3427    1.3809 H     188  UNL188      0.0427
   1501 H           7.9108   11.7664    0.3174 H     188  UNL188      0.0427
   1502 H           5.8240   10.4229    0.0034 H     188  UNL188      0.0241
   1503 H           6.7882   10.4213   -1.4814 H     188  UNL188      0.0241
   1504 H           6.7882    8.9994   -0.4193 H     188  UNL188      0.0241
   1505 CL          9.4779   10.7135    2.3032 Cl    189  UNL189     -0.1257
   1506 C           7.9354    9.8318    2.3032 C.3   189  UNL189      0.0198
   1507 C           6.7709   10.7996    2.3032 C.3   189  UNL189     -0.0517
   1508 H           7.9108    9.1947    1.4146 H     189  UNL189      0.0427
   1509 H           7.9108    9.1947    3.1917 H     189  UNL189      0.0427
   1510 H           5.8240   10.2503    2.3032 H     189  UNL189      0.0241
   1511 H           6.7882   11.4408    3.1906 H     189  UNL189      0.0241
   1512 H           6.7882   11.4408    1.4158 H     189  UNL189      0.0241
   1513 CL          9.0568    9.2938    3.9518 Cl    190  UNL190     -0.1257
   1514 C           7.6949    9.7503    4.9975 C.3   190  UNL190      0.0198
   1515 C           7.0279   11.0079    4.4815 C.3   190  UNL190     -0.0517
   1516 H           6.9885    8.9156    5.0156 H     190  UNL190      0.0427
   1517 H           8.0822    9.9032    6.0087 H     190  UNL190      0.0427
   1518 H           6.1901   11.2837    5.1299 H     190  UNL190      0.0241
   1519 H           7.7289   11.8488    4.4612 H     190  UNL190      0.0241
   1520 H           6.6366   10.8624    3.4693 H     190  UNL190      0.0241
   1521 CL          9.4779    7.7135    9.0757 Cl    191  UNL191     -0.1257
   1522 C           7.9354    6.8318    9.0757 C.3   191  UNL191      0.0198
   1523 C           6.7709    7.7996    9.0757 C.3   191  UNL191     -0.0517
   1524 H           7.9108    6.1947    8.1871 H     191  UNL191      0.0427
   1525 H           7.9108    6.1947    9.9642 H     191  UNL191      0.0427
   1526 H           5.8240    7.2503    9.0757 H     191  UNL191      0.0241
   1527 H           6.7882    8.4408    9.9631 H     191  UNL191      0.0241
   1528 H           6.7882    8.4408    8.1883 H     191  UNL191      0.0241
   1529 CL          9.4779   10.1456    9.1774 Cl    192  UNL192     -0.1257
   1530 C           7.9354   10.6733    9.8837 C.3   192  UNL192      0.0198
   1531 C           6.7709   10.0941    9.1084 C.3   192  UNL192     -0.0517
   1532 H           7.9108   10.3427   10.9259 H     192  UNL192      0.0427
   1533 H           7.9108   11.7664    9.8624 H     192  UNL192      0.0427
   1534 H           5.8240   10.4229    9.5485 H     192  UNL192      0.0241
   1535 H           6.7882   10.4213    8.0636 H     192  UNL192      0.0241
   1536 H           6.7882    8.9994    9.1258 H     192  UNL192      0.0241
   1537 CL          9.4779   10.7135   11.8482 Cl    193  UNL193     -0.1257
   1538 C           7.9354    9.8318   11.8482 C.3   193  UNL193      0.0198
   1539 C           6.7709   10.7996   11.8482 C.3   193  UNL193     -0.0517
   1540 H           7.9108    9.1947   10.9596 H     193  UNL193      0.0427
   1541 H           7.9108    9.1947   12.7367 H     193  UNL193      0.0427
   1542 H           5.8240   10.2503   11.8482 H     193  UNL193      0.0241
   1543 H           6.7882   11.4408   12.7356 H     193  UNL193      0.0241
   1544 H           6.7882   11.4408   10.9608 H     193  UNL193      0.0241
   1545 CL          9.4779   10.1456   14.5191 Cl    194  UNL194     -0.1257
   1546 C           7.9354   10.6733   13.8127 C.3   194  UNL194      0.0198
   1547 C           6.7709   10.0941   14.5880 C.3   194  UNL194     -0.0517
   1548 H           7.9108   11.7665   13.8341 H     194  UNL194      0.0427
   1549 H           7.9108   10.3427   12.7705 H     194  UNL194      0.0427
   1550 H           5.8240   10.4228   14.1480 H     194  UNL194      0.0241
   1551 H           6.7882    8.9994   14.5707 H     194  UNL194      0.0241
   1552 H           6.7882   10.4213   15.6328 H     194  UNL194      0.0241
   1553 CL         11.4779   12.7135   14.6208 Cl    195  UNL195     -0.1257
   1554 C           9.9354   11.8318   14.6208 C.3   195  UNL195      0.0198
   1555 C           8.7709   12.7996   14.6208 C.3   195  UNL195     -0.0517
   1556 H           9.9108   11.1947   13.7321 H     195  UNL195      0.0427
   1557 H           9.9108   11.1947   15.5093 H     195  UNL195      0.0427
   1558 H           7.8240   12.2503   14.6208 H     195  UNL195      0.0241
   1559 H           8.7882   13.4408   15.5082 H     195  UNL195      0.0241
   1560 H           8.7882   13.4408   13.7334 H     195  UNL195      0.0241
   1561 CL         11.4779   12.7135   19.0070 Cl    196  UNL196     -0.1257
   1562 C           9.9354   11.8318   19.0070 C.3   196  UNL196      0.0198
   1563 C           8.7709   12.7996   19.0070 C.3   196  UNL196     -0.0517
   1564 H           9.9108   11.1947   18.1184 H     196  UNL196      0.0427
   1565 H           9.9108   11.1947   19.8955 H     196  UNL196      0.0427
   1566 H           7.8240   12.2503   19.0070 H     196  UNL196      0.0241
   1567 H           8.7882   13.4408   19.8944 H     196  UNL196      0.0241
   1568 H           8.7882   13.4408   18.1196 H     196  UNL196      0.0241
   1569 CL         11.4779   12.7135   21.3933 Cl    197  UNL197     -0.1257
   1570 C           9.9354   11.8318   21.3933 C.3   197  UNL197      0.0198
   1571 C           8.7709   12.7996   21.3933 C.3   197  UNL197     -0.0517
   1572 H           9.9108   11.1947   20.5047 H     197  UNL197      0.0427
   1573 H           9.9108   11.1947   22.2818 H     197  UNL197      0.0427
   1574 H           7.8240   12.2503   21.3933 H     197  UNL197      0.0241
   1575 H           8.7882   13.4408   22.2807 H     197  UNL197      0.0241
   1576 H           8.7882   13.4408   20.5059 H     197  UNL197      0.0241
   1577 CL         11.4779   15.3811    2.3032 Cl    198  UNL198     -0.1257
   1578 C           9.9354   14.4994    2.3032 C.3   198  UNL198      0.0198
   1579 C           8.7709   15.4672    2.3032 C.3   198  UNL198     -0.0517
   1580 H           9.9108   13.8623    1.4146 H     198  UNL198      0.0427
   1581 H           9.9108   13.8623    3.1917 H     198  UNL198      0.0427
   1582 H           7.8240   14.9179    2.3032 H     198  UNL198      0.0241
   1583 H           8.7882   16.1084    3.1906 H     198  UNL198      0.0241
   1584 H           8.7882   16.1084    1.4158 H     198  UNL198      0.0241
   1585 CL          9.4779   14.8133    4.4048 Cl    199  UNL199     -0.1257
   1586 C           7.9354   15.3410    5.1112 C.3   199  UNL199      0.0198
   1587 C           6.7709   14.7618    4.3359 C.3   199  UNL199     -0.0517
   1588 H           7.9108   15.0103    6.1534 H     199  UNL199      0.0427
   1589 H           7.9108   16.4341    5.0899 H     199  UNL199      0.0427
   1590 H           5.8240   15.0905    4.7759 H     199  UNL199      0.0241
   1591 H           6.7882   15.0890    3.2911 H     199  UNL199      0.0241
   1592 H           6.7882   13.6671    4.3532 H     199  UNL199      0.0241
   1593 CL         11.4779   13.3811    5.0757 Cl    200  UNL200     -0.1257
   1594 C           9.9354   12.4994    5.0757 C.3   200  UNL200      0.0198
   1595 C           8.7709   13.4672    5.0757 C.3   200  UNL200     -0.0517
   1596 H           9.9108   11.8623    4.1871 H     200  UNL200      0.0427
   1597 H           9.9108   11.8623    5.9642 H     200  UNL200      0.0427
   1598 H           7.8240   12.9179    5.0757 H     200  UNL200      0.0241
   1599 H           8.7882   14.1084    5.9631 H     200  UNL200      0.0241
   1600 H           8.7882   14.1084    4.1883 H     200  UNL200      0.0241
   1601 CL         11.4779   15.3811    9.4620 Cl    201  UNL201     -0.1257
   1602 C           9.9354   14.4994    9.4620 C.3   201  UNL201      0.0198
   1603 C           8.7709   15.4672    9.4620 C.3   201  UNL201     -0.0517
   1604 H           9.9108   13.8623    8.5734 H     201  UNL201      0.0427
   1605 H           9.9108   13.8623   10.3505 H     201  UNL201      0.0427
   1606 H           7.8240   14.9179    9.4620 H     201  UNL201      0.0241
   1607 H           8.7882   16.1084   10.3494 H     201  UNL201      0.0241
   1608 H           8.7882   16.1084    8.5746 H     201  UNL201      0.0241
   1609 CL          9.4779   13.3811   11.8482 Cl    202  UNL202     -0.1257
   1610 C           7.9354   12.4994   11.8482 C.3   202  UNL202      0.0198
   1611 C           6.7709   13.4672   11.8482 C.3   202  UNL202     -0.0517
   1612 H           7.9108   11.8623   10.9596 H     202  UNL202      0.0427
   1613 H           7.9108   11.8623   12.7367 H     202  UNL202      0.0427
   1614 H           5.8240   12.9179   11.8482 H     202  UNL202      0.0241
   1615 H           6.7882   14.1084   12.7356 H     202  UNL202      0.0241
   1616 H           6.7882   14.1084   10.9608 H     202  UNL202      0.0241
   1617 CL         11.4779   13.3811   12.2345 Cl    203  UNL203     -0.1257
   1618 C           9.9354   12.4994   12.2345 C.3   203  UNL203      0.0198
   1619 C           8.7709   13.4672   12.2345 C.3   203  UNL203     -0.0517
   1620 H           9.9108   11.8623   11.3459 H     203  UNL203      0.0427
   1621 H           9.9108   11.8623   13.1230 H     203  UNL203      0.0427
   1622 H           7.8240   12.9179   12.2345 H     203  UNL203      0.0241
   1623 H           8.7882   14.1084   13.1219 H     203  UNL203      0.0241
   1624 H           8.7882   14.1084   11.3471 H     203  UNL203      0.0241
   1625 CL         11.4779   15.3811   16.6208 Cl    204  UNL204     -0.1257
   1626 C           9.9354   14.4994   16.6208 C.3   204  UNL204      0.0198
   1627 C           8.7709   15.4672   16.6208 C.3   204  UNL204     -0.0517
   1628 H           9.9108   13.8623   15.7321 H     204  UNL204      0.0427
   1629 H           9.9108   13.8623   17.5093 H     204  UNL204      0.0427
   1630 H           7.8240   14.9179   16.6208 H     204  UNL204      0.0241
   1631 H           8.7882   16.1084   17.5082 H     204  UNL204      0.0241
   1632 H           8.7882   16.1084   15.7334 H     204  UNL204      0.0241
   1633 CL          9.4779   12.8133   18.7224 Cl    205  UNL205     -0.1257
   1634 C           7.9354   13.3410   19.4288 C.3   205  UNL205      0.0198
   1635 C           6.7709   12.7618   18.6534 C.3   205  UNL205     -0.0517
   1636 H           7.9108   13.0103   20.4710 H     205  UNL205      0.0427
   1637 H           7.9108   14.4341   19.4075 H     205  UNL205      0.0427
   1638 H           5.8240   13.0905   19.0935 H     205  UNL205      0.0241
   1639 H           6.7882   13.0890   17.6087 H     205  UNL205      0.0241
   1640 H           6.7882   11.6671   18.6708 H     205  UNL205      0.0241
   1641 CL          6.1976   13.3811   19.7492 Cl    206  UNL206     -0.1257
   1642 C           7.1208   12.4994   20.9850 C.3   206  UNL206      0.0198
   1643 C           7.8177   13.4672   21.9179 C.3   206  UNL206     -0.0517
   1644 H           6.4236   11.8623   21.5365 H     206  UNL206      0.0427
   1645 H           7.8473   11.8623   20.4729 H     206  UNL206      0.0427
   1646 H           8.3843   12.9179   22.6765 H     206  UNL206      0.0241
   1647 H           8.5182   14.1084   21.3730 H     206  UNL206      0.0241
   1648 H           7.0964   14.1084   22.4351 H     206  UNL206      0.0241
   1649 CL         11.4779   17.0488   -0.0831 Cl    207  UNL207     -0.1257
   1650 C           9.9354   16.1671   -0.0831 C.3   207  UNL207      0.0198
   1651 C           8.7709   17.1349   -0.0831 C.3   207  UNL207     -0.0517
   1652 H           9.9108   15.5300   -0.9717 H     207  UNL207      0.0427
   1653 H           9.9108   15.5300    0.8054 H     207  UNL207      0.0427
   1654 H           7.8240   16.5856   -0.0831 H     207  UNL207      0.0241
   1655 H           8.7882   17.7761    0.8043 H     207  UNL207      0.0241
   1656 H           8.7882   17.7761   -0.9705 H     207  UNL207      0.0241
   1657 CL          6.1976   16.0488    0.6591 Cl    208  UNL208     -0.1257
   1658 C           7.1208   15.1671    1.8949 C.3   208  UNL208      0.0198
   1659 C           7.8177   16.1349    2.8278 C.3   208  UNL208     -0.0517
   1660 H           6.4236   14.5300    2.4464 H     208  UNL208      0.0427
   1661 H           7.8473   14.5300    1.3829 H     208  UNL208      0.0427
   1662 H           8.3843   15.5856    3.5864 H     208  UNL208      0.0241
   1663 H           8.5182   16.7761    2.2829 H     208  UNL208      0.0241
   1664 H           7.0964   16.7761    3.3450 H     208  UNL208      0.0241
   1665 CL         11.4779   17.0488    2.6895 Cl    209  UNL209     -0.1257
   1666 C           9.9354   16.1671    2.6895 C.3   209  UNL209      0.0198
   1667 C           8.7709   17.1349    2.6895 C.3   209  UNL209     -0.0517
   1668 H           9.9108   15.5300    1.8008 H     209  UNL209      0.0427
   1669 H           9.9108   15.5300    3.5780 H     209  UNL209      0.0427
   1670 H           7.8240   16.5856    2.6895 H     209  UNL209      0.0241
   1671 H           8.7882   17.7761    3.5768 H     209  UNL209      0.0241
   1672 H           8.7882   17.7761    1.8021 H     209  UNL209      0.0241
   1673 CL          9.4779   16.0488    7.0757 Cl    210  UNL210     -0.1257
   1674 C           7.9354   15.1671    7.0757 C.3   210  UNL210      0.0198
   1675 C           6.7709   16.1349    7.0757 C.3   210  UNL210     -0.0517
   1676 H           7.9108   14.5300    6.1871 H     210  UNL210      0.0427
   1677 H           7.9108   14.5300    7.9642 H     210  UNL210      0.0427
   1678 H           5.8240   15.5856    7.0757 H     210  UNL210      0.0241
   1679 H           6.7882   16.7761    7.9631 H     210  UNL210      0.0241
   1680 H           6.7882   16.7761    6.1883 H     210  UNL210      0.0241
   1681 CL         11.4779   17.0488    9.4620 Cl    211  UNL211     -0.1257
   1682 C           9.9354   16.1671    9.4620 C.3   211  UNL211      0.0198
   1683 C           8.7709   17.1349    9.4620 C.3   211  UNL211     -0.0517
   1684 H           9.9108   15.5300    8.5734 H     211  UNL211      0.0427
   1685 H           9.9108   15.5300   10.3505 H     211  UNL211      0.0427
   1686 H           7.8240   16.5856    9.4620 H     211  UNL211      0.0241
   1687 H           8.7882   17.7761   10.3494 H     211  UNL211      0.0241
   1688 H           8.7882   17.7761    8.5746 H     211  UNL211      0.0241
   1689 CL          9.4779   16.0488   11.8482 Cl    212  UNL212     -0.1257
   1690 C           7.9354   15.1671   11.8482 C.3   212  UNL212      0.0198
   1691 C           6.7709   16.1349   11.8482 C.3   212  UNL212     -0.0517
   1692 H           7.9108   14.5300   10.9596 H     212  UNL212      0.0427
   1693 H           7.9108   14.5300   12.7367 H     212  UNL212      0.0427
   1694 H           5.8240   15.5856   11.8482 H     212  UNL212      0.0241
   1695 H           6.7882   16.7761   12.7356 H     212  UNL212      0.0241
   1696 H           6.7882   16.7761   10.9608 H     212  UNL212      0.0241
   1697 CL         11.4779   17.0488   14.2345 Cl    213  UNL213     -0.1257
   1698 C           9.9354   16.1671   14.2345 C.3   213  UNL213      0.0198
   1699 C           8.7709   17.1349   14.2345 C.3   213  UNL213     -0.0517
   1700 H           9.9108   15.5300   13.3459 H     213  UNL213      0.0427
   1701 H           9.9108   15.5300   15.1230 H     213  UNL213      0.0427
   1702 H           7.8240   16.5856   14.2345 H     213  UNL213      0.0241
   1703 H           8.7882   17.7761   15.1219 H     213  UNL213      0.0241
   1704 H           8.7882   17.7761   13.3471 H     213  UNL213      0.0241
   1705 CL          9.4779   15.4809   16.9053 Cl    214  UNL214     -0.1257
   1706 C           7.9354   16.0086   16.1989 C.3   214  UNL214      0.0198
   1707 C           6.7709   15.4294   16.9743 C.3   214  UNL214     -0.0517
   1708 H           7.9108   17.1018   16.2203 H     214  UNL214      0.0427
   1709 H           7.9108   15.6781   15.1568 H     214  UNL214      0.0427
   1710 H           5.8240   15.7582   16.5342 H     214  UNL214      0.0241
   1711 H           6.7882   14.3347   16.9569 H     214  UNL214      0.0241
   1712 H           6.7882   15.7566   18.0191 H     214  UNL214      0.0241
   1713 CL         11.4779   17.0488   17.0070 Cl    215  UNL215     -0.1257
   1714 C           9.9354   16.1671   17.0070 C.3   215  UNL215      0.0198
   1715 C           8.7709   17.1349   17.0070 C.3   215  UNL215     -0.0517
   1716 H           9.9108   15.5300   16.1184 H     215  UNL215      0.0427
   1717 H           9.9108   15.5300   17.8955 H     215  UNL215      0.0427
   1718 H           7.8240   16.5856   17.0070 H     215  UNL215      0.0241
   1719 H           8.7882   17.7761   17.8944 H     215  UNL215      0.0241
   1720 H           8.7882   17.7761   16.1196 H     215  UNL215      0.0241
   1721 CL          8.1976   17.0488   19.7492 Cl    216  UNL216     -0.1257
   1722 C           9.1208   16.1671   20.9850 C.3   216  UNL216      0.0198
   1723 C           9.8177   17.1349   21.9179 C.3   216  UNL216     -0.0517
   1724 H           8.4236   15.5300   21.5365 H     216  UNL216      0.0427
   1725 H           9.8473   15.5300   20.4729 H     216  UNL216      0.0427
   1726 H          10.3843   16.5856   22.6765 H     216  UNL216      0.0241
   1727 H          10.5182   17.7761   21.3730 H     216  UNL216      0.0241
   1728 H           9.0964   17.7761   22.4351 H     216  UNL216      0.0241
   1729 CL         15.3802   -0.6248   -0.0831 Cl    217  UNL217     -0.1257
   1730 C          13.8377   -1.5065   -0.0831 C.3   217  UNL217      0.0198
   1731 C          12.6732   -0.5387   -0.0831 C.3   217  UNL217     -0.0517
   1732 H          13.8131   -2.1436   -0.9717 H     217  UNL217      0.0427
   1733 H          13.8131   -2.1436    0.8054 H     217  UNL217      0.0427
   1734 H          11.7263   -1.0880   -0.0831 H     217  UNL217      0.0241
   1735 H          12.6905    0.1024    0.8043 H     217  UNL217      0.0241
   1736 H          12.6905    0.1024   -0.9705 H     217  UNL217      0.0241
   1737 CL         15.3802   -0.6248    7.0757 Cl    218  UNL218     -0.1257
   1738 C          13.8377   -1.5065    7.0757 C.3   218  UNL218      0.0198
   1739 C          12.6732   -0.5387    7.0757 C.3   218  UNL218     -0.0517
   1740 H          13.8131   -2.1436    6.1871 H     218  UNL218      0.0427
   1741 H          13.8131   -2.1436    7.9642 H     218  UNL218      0.0427
   1742 H          11.7263   -1.0880    7.0757 H     218  UNL218      0.0241
   1743 H          12.6905    0.1024    7.9631 H     218  UNL218      0.0241
   1744 H          12.6905    0.1024    6.1883 H     218  UNL218      0.0241
   1745 CL         15.3802   -0.6248   11.8482 Cl    219  UNL219     -0.1257
   1746 C          13.8377   -1.5065   11.8482 C.3   219  UNL219      0.0198
   1747 C          12.6732   -0.5387   11.8482 C.3   219  UNL219     -0.0517
   1748 H          13.8131   -2.1436   10.9596 H     219  UNL219      0.0427
   1749 H          13.8131   -2.1436   12.7367 H     219  UNL219      0.0427
   1750 H          11.7263   -1.0880   11.8482 H     219  UNL219      0.0241
   1751 H          12.6905    0.1024   12.7356 H     219  UNL219      0.0241
   1752 H          12.6905    0.1024   10.9608 H     219  UNL219      0.0241
   1753 CL         15.3802   -0.6248   16.6208 Cl    220  UNL220     -0.1257
   1754 C          13.8377   -1.5065   16.6208 C.3   220  UNL220      0.0198
   1755 C          12.6732   -0.5387   16.6208 C.3   220  UNL220     -0.0517
   1756 H          13.8131   -2.1436   15.7321 H     220  UNL220      0.0427
   1757 H          13.8131   -2.1436   17.5093 H     220  UNL220      0.0427
   1758 H          11.7263   -1.0880   16.6208 H     220  UNL220      0.0241
   1759 H          12.6905    0.1024   17.5082 H     220  UNL220      0.0241
   1760 H          12.6905    0.1024   15.7334 H     220  UNL220      0.0241
   1761 CL         15.3802    2.0428    2.3032 Cl    221  UNL221     -0.1257
   1762 C          13.8377    1.1611    2.3032 C.3   221  UNL221      0.0198
   1763 C          12.6732    2.1289    2.3032 C.3   221  UNL221     -0.0517
   1764 H          13.8131    0.5240    1.4146 H     221  UNL221      0.0427
   1765 H          13.8131    0.5240    3.1917 H     221  UNL221      0.0427
   1766 H          11.7263    1.5796    2.3032 H     221  UNL221      0.0241
   1767 H          12.6905    2.7701    3.1906 H     221  UNL221      0.0241
   1768 H          12.6905    2.7701    1.4158 H     221  UNL221      0.0241
   1769 CL         12.3846   -2.1691    4.6895 Cl    222  UNL222     -0.1257
   1770 C          12.6013   -0.4056    4.6895 C.3   222  UNL222      0.0198
   1771 C          14.0736   -0.0519    4.6895 C.3   222  UNL222     -0.0517
   1772 H          12.1056   -0.0046    3.8008 H     222  UNL222      0.0427
   1773 H          12.1056   -0.0046    5.5780 H     222  UNL222      0.0427
   1774 H          14.2002    1.0355    4.6895 H     222  UNL222      0.0241
   1775 H          14.5769   -0.4495    5.5768 H     222  UNL222      0.0241
   1776 H          14.5769   -0.4495    3.8021 H     222  UNL222      0.0241
   1777 CL         15.3802    2.0428    7.0757 Cl    223  UNL223     -0.1257
   1778 C          13.8377    1.1611    7.0757 C.3   223  UNL223      0.0198
   1779 C          12.6732    2.1289    7.0757 C.3   223  UNL223     -0.0517
   1780 H          13.8131    0.5240    6.1871 H     223  UNL223      0.0427
   1781 H          13.8131    0.5240    7.9642 H     223  UNL223      0.0427
   1782 H          11.7263    1.5796    7.0757 H     223  UNL223      0.0241
   1783 H          12.6905    2.7701    7.9631 H     223  UNL223      0.0241
   1784 H          12.6905    2.7701    6.1883 H     223  UNL223      0.0241
   1785 CL         15.3802    2.0428    9.4620 Cl    224  UNL224     -0.1257
   1786 C          13.8377    1.1611    9.4620 C.3   224  UNL224      0.0198
   1787 C          12.6732    2.1289    9.4620 C.3   224  UNL224     -0.0517
   1788 H          13.8131    0.5240    8.5734 H     224  UNL224      0.0427
   1789 H          13.8131    0.5240   10.3505 H     224  UNL224      0.0427
   1790 H          11.7263    1.5796    9.4620 H     224  UNL224      0.0241
   1791 H          12.6905    2.7701   10.3494 H     224  UNL224      0.0241
   1792 H          12.6905    2.7701    8.5746 H     224  UNL224      0.0241
   1793 CL         15.3802    0.0428   11.8482 Cl    225  UNL225     -0.1257
   1794 C          13.8377   -0.8389   11.8482 C.3   225  UNL225      0.0198
   1795 C          12.6732    0.1289   11.8482 C.3   225  UNL225     -0.0517
   1796 H          13.8131   -1.4760   10.9596 H     225  UNL225      0.0427
   1797 H          13.8131   -1.4760   12.7367 H     225  UNL225      0.0427
   1798 H          11.7263   -0.4204   11.8482 H     225  UNL225      0.0241
   1799 H          12.6905    0.7701   12.7356 H     225  UNL225      0.0241
   1800 H          12.6905    0.7701   10.9608 H     225  UNL225      0.0241
   1801 CL         15.3802    2.0428   14.2345 Cl    226  UNL226     -0.1257
   1802 C          13.8377    1.1611   14.2345 C.3   226  UNL226      0.0198
   1803 C          12.6732    2.1289   14.2345 C.3   226  UNL226     -0.0517
   1804 H          13.8131    0.5240   13.3459 H     226  UNL226      0.0427
   1805 H          13.8131    0.5240   15.1230 H     226  UNL226      0.0427
   1806 H          11.7263    1.5796   14.2345 H     226  UNL226      0.0241
   1807 H          12.6905    2.7701   15.1219 H     226  UNL226      0.0241
   1808 H          12.6905    2.7701   13.3471 H     226  UNL226      0.0241
   1809 CL         15.3802    2.0428   16.6208 Cl    227  UNL227     -0.1257
   1810 C          13.8377    1.1611   16.6208 C.3   227  UNL227      0.0198
   1811 C          12.6732    2.1289   16.6208 C.3   227  UNL227     -0.0517
   1812 H          13.8131    0.5240   15.7321 H     227  UNL227      0.0427
   1813 H          13.8131    0.5240   17.5093 H     227  UNL227      0.0427
   1814 H          11.7263    1.5796   16.6208 H     227  UNL227      0.0241
   1815 H          12.6905    2.7701   17.5082 H     227  UNL227      0.0241
   1816 H          12.6905    2.7701   15.7334 H     227  UNL227      0.0241
   1817 CL         13.3802   -0.5250   19.2916 Cl    228  UNL228     -0.1257
   1818 C          11.8377    0.0027   18.5852 C.3   228  UNL228      0.0198
   1819 C          10.6732   -0.5765   19.3606 C.3   228  UNL228     -0.0517
   1820 H          11.8131    1.0958   18.6066 H     228  UNL228      0.0427
   1821 H          11.8131   -0.3279   17.5431 H     228  UNL228      0.0427
   1822 H           9.7263   -0.2478   18.9205 H     228  UNL228      0.0241
   1823 H          10.6905   -1.6712   19.3432 H     228  UNL228      0.0241
   1824 H          10.6905   -0.2493   20.4053 H     228  UNL228      0.0241
   1825 CL         15.3802    0.0428   21.3933 Cl    229  UNL229     -0.1257
   1826 C          13.8377   -0.8389   21.3933 C.3   229  UNL229      0.0198
   1827 C          12.6732    0.1289   21.3933 C.3   229  UNL229     -0.0517
   1828 H          13.8131   -1.4760   20.5047 H     229  UNL229      0.0427
   1829 H          13.8131   -1.4760   22.2818 H     229  UNL229      0.0427
   1830 H          11.7263   -0.4204   21.3933 H     229  UNL229      0.0241
   1831 H          12.6905    0.7701   22.2807 H     229  UNL229      0.0241
   1832 H          12.6905    0.7701   20.5059 H     229  UNL229      0.0241
   1833 CL         15.3802    2.7105   -0.0831 Cl    230  UNL230     -0.1257
   1834 C          13.8377    1.8288   -0.0831 C.3   230  UNL230      0.0198
   1835 C          12.6732    2.7966   -0.0831 C.3   230  UNL230     -0.0517
   1836 H          13.8131    1.1917   -0.9717 H     230  UNL230      0.0427
   1837 H          13.8131    1.1917    0.8054 H     230  UNL230      0.0427
   1838 H          11.7263    2.2473   -0.0831 H     230  UNL230      0.0241
   1839 H          12.6905    3.4378    0.8043 H     230  UNL230      0.0241
   1840 H          12.6905    3.4378   -0.9705 H     230  UNL230      0.0241
   1841 CL         15.3802    4.7105    2.3032 Cl    231  UNL231     -0.1257
   1842 C          13.8377    3.8288    2.3032 C.3   231  UNL231      0.0198
   1843 C          12.6732    4.7966    2.3032 C.3   231  UNL231     -0.0517
   1844 H          13.8131    3.1917    1.4146 H     231  UNL231      0.0427
   1845 H          13.8131    3.1917    3.1917 H     231  UNL231      0.0427
   1846 H          11.7263    4.2473    2.3032 H     231  UNL231      0.0241
   1847 H          12.6905    5.4378    3.1906 H     231  UNL231      0.0241
   1848 H          12.6905    5.4378    1.4158 H     231  UNL231      0.0241
   1849 CL         15.3802    2.7105    4.6895 Cl    232  UNL232     -0.1257
   1850 C          13.8377    1.8288    4.6895 C.3   232  UNL232      0.0198
   1851 C          12.6732    2.7966    4.6895 C.3   232  UNL232     -0.0517
   1852 H          13.8131    1.1917    3.8008 H     232  UNL232      0.0427
   1853 H          13.8131    1.1917    5.5780 H     232  UNL232      0.0427
   1854 H          11.7263    2.2473    4.6895 H     232  UNL232      0.0241
   1855 H          12.6905    3.4378    5.5768 H     232  UNL232      0.0241
   1856 H          12.6905    3.4378    3.8021 H     232  UNL232      0.0241
   1857 CL         15.3802    2.7105    7.0757 Cl    233  UNL233     -0.1257
   1858 C          13.8377    1.8288    7.0757 C.3   233  UNL233      0.0198
   1859 C          12.6732    2.7966    7.0757 C.3   233  UNL233     -0.0517
   1860 H          13.8131    1.1917    6.1871 H     233  UNL233      0.0427
   1861 H          13.8131    1.1917    7.9642 H     233  UNL233      0.0427
   1862 H          11.7263    2.2473    7.0757 H     233  UNL233      0.0241
   1863 H          12.6905    3.4378    7.9631 H     233  UNL233      0.0241
   1864 H          12.6905    3.4378    6.1883 H     233  UNL233      0.0241
   1865 CL         15.3802    2.7105    9.4620 Cl    234  UNL234     -0.1257
   1866 C          13.8377    1.8288    9.4620 C.3   234  UNL234      0.0198
   1867 C          12.6732    2.7966    9.4620 C.3   234  UNL234     -0.0517
   1868 H          13.8131    1.1917    8.5734 H     234  UNL234      0.0427
   1869 H          13.8131    1.1917   10.3505 H     234  UNL234      0.0427
   1870 H          11.7263    2.2473    9.4620 H     234  UNL234      0.0241
   1871 H          12.6905    3.4378   10.3494 H     234  UNL234      0.0241
   1872 H          12.6905    3.4378    8.5746 H     234  UNL234      0.0241
   1873 CL         15.3802    4.7105   11.8482 Cl    235  UNL235     -0.1257
   1874 C          13.8377    3.8288   11.8482 C.3   235  UNL235      0.0198
   1875 C          12.6732    4.7966   11.8482 C.3   235  UNL235     -0.0517
   1876 H          13.8131    3.1917   10.9596 H     235  UNL235      0.0427
   1877 H          13.8131    3.1917   12.7367 H     235  UNL235      0.0427
   1878 H          11.7263    4.2473   11.8482 H     235  UNL235      0.0241
   1879 H          12.6905    5.4378   12.7356 H     235  UNL235      0.0241
   1880 H          12.6905    5.4378   10.9608 H     235  UNL235      0.0241
   1881 CL         15.3802    2.7105   14.2345 Cl    236  UNL236     -0.1257
   1882 C          13.8377    1.8288   14.2345 C.3   236  UNL236      0.0198
   1883 C          12.6732    2.7966   14.2345 C.3   236  UNL236     -0.0517
   1884 H          13.8131    1.1917   13.3459 H     236  UNL236      0.0427
   1885 H          13.8131    1.1917   15.1230 H     236  UNL236      0.0427
   1886 H          11.7263    2.2473   14.2345 H     236  UNL236      0.0241
   1887 H          12.6905    3.4378   15.1219 H     236  UNL236      0.0241
   1888 H          12.6905    3.4378   13.3471 H     236  UNL236      0.0241
   1889 CL         15.3802    4.7105   16.6208 Cl    237  UNL237     -0.1257
   1890 C          13.8377    3.8288   16.6208 C.3   237  UNL237      0.0198
   1891 C          12.6732    4.7966   16.6208 C.3   237  UNL237     -0.0517
   1892 H          13.8131    3.1917   15.7321 H     237  UNL237      0.0427
   1893 H          13.8131    3.1917   17.5093 H     237  UNL237      0.0427
   1894 H          11.7263    4.2473   16.6208 H     237  UNL237      0.0241
   1895 H          12.6905    5.4378   17.5082 H     237  UNL237      0.0241
   1896 H          12.6905    5.4378   15.7334 H     237  UNL237      0.0241
   1897 CL         15.3802    2.7105   19.0070 Cl    238  UNL238     -0.1257
   1898 C          13.8377    1.8288   19.0070 C.3   238  UNL238      0.0198
   1899 C          12.6732    2.7966   19.0070 C.3   238  UNL238     -0.0517
   1900 H          13.8131    1.1917   18.1184 H     238  UNL238      0.0427
   1901 H          13.8131    1.1917   19.8955 H     238  UNL238      0.0427
   1902 H          11.7263    2.2473   19.0070 H     238  UNL238      0.0241
   1903 H          12.6905    3.4378   19.8944 H     238  UNL238      0.0241
   1904 H          12.6905    3.4378   18.1196 H     238  UNL238      0.0241
   1905 CL         15.3802    2.7105   22.3933 Cl    239  UNL239     -0.1257
   1906 C          13.8377    1.8288   22.3933 C.3   239  UNL239      0.0198
   1907 C          12.6732    2.7966   22.3933 C.3   239  UNL239     -0.0517
   1908 H          13.8131    1.1917   21.5047 H     239  UNL239      0.0427
   1909 H          13.8131    1.1917   23.2818 H     239  UNL239      0.0427
   1910 H          11.7263    2.2473   22.3933 H     239  UNL239      0.0241
   1911 H          12.6905    3.4378   23.2807 H     239  UNL239      0.0241
   1912 H          12.6905    3.4378   21.5059 H     239  UNL239      0.0241
   1913 CL         15.3802    3.3781   -0.0831 Cl    240  UNL240     -0.1257
   1914 C          13.8377    2.4964   -0.0831 C.3   240  UNL240      0.0198
   1915 C          12.6732    3.4642   -0.0831 C.3   240  UNL240     -0.0517
   1916 H          13.8131    1.8593   -0.9717 H     240  UNL240      0.0427
   1917 H          13.8131    1.8593    0.8054 H     240  UNL240      0.0427
   1918 H          11.7263    2.9149   -0.0831 H     240  UNL240      0.0241
   1919 H          12.6905    4.1054    0.8043 H     240  UNL240      0.0241
   1920 H          12.6905    4.1054   -0.9705 H     240  UNL240      0.0241
   1921 CL         15.3802    7.3781    2.3032 Cl    241  UNL241     -0.1257
   1922 C          13.8377    6.4964    2.3032 C.3   241  UNL241      0.0198
   1923 C          12.6732    7.4642    2.3032 C.3   241  UNL241     -0.0517
   1924 H          13.8131    5.8593    1.4146 H     241  UNL241      0.0427
   1925 H          13.8131    5.8593    3.1917 H     241  UNL241      0.0427
   1926 H          11.7263    6.9149    2.3032 H     241  UNL241      0.0241
   1927 H          12.6905    8.1054    3.1906 H     241  UNL241      0.0241
   1928 H          12.6905    8.1054    1.4158 H     241  UNL241      0.0241
   1929 CL         15.3802    5.3781    4.6895 Cl    242  UNL242     -0.1257
   1930 C          13.8377    4.4964    4.6895 C.3   242  UNL242      0.0198
   1931 C          12.6732    5.4642    4.6895 C.3   242  UNL242     -0.0517
   1932 H          13.8131    3.8593    3.8008 H     242  UNL242      0.0427
   1933 H          13.8131    3.8593    5.5780 H     242  UNL242      0.0427
   1934 H          11.7263    4.9149    4.6895 H     242  UNL242      0.0241
   1935 H          12.6905    6.1054    5.5768 H     242  UNL242      0.0241
   1936 H          12.6905    6.1054    3.8021 H     242  UNL242      0.0241
   1937 CL         15.3802    7.3781    7.0757 Cl    243  UNL243     -0.1257
   1938 C          13.8377    6.4964    7.0757 C.3   243  UNL243      0.0198
   1939 C          12.6732    7.4642    7.0757 C.3   243  UNL243     -0.0517
   1940 H          13.8131    5.8593    6.1871 H     243  UNL243      0.0427
   1941 H          13.8131    5.8593    7.9642 H     243  UNL243      0.0427
   1942 H          11.7263    6.9149    7.0757 H     243  UNL243      0.0241
   1943 H          12.6905    8.1054    7.9631 H     243  UNL243      0.0241
   1944 H          12.6905    8.1054    6.1883 H     243  UNL243      0.0241
   1945 CL         15.3802    7.3781    9.4620 Cl    244  UNL244     -0.1257
   1946 C          13.8377    6.4964    9.4620 C.3   244  UNL244      0.0198
   1947 C          12.6732    7.4642    9.4620 C.3   244  UNL244     -0.0517
   1948 H          13.8131    5.8593    8.5734 H     244  UNL244      0.0427
   1949 H          13.8131    5.8593   10.3505 H     244  UNL244      0.0427
   1950 H          11.7263    6.9149    9.4620 H     244  UNL244      0.0241
   1951 H          12.6905    8.1054   10.3494 H     244  UNL244      0.0241
   1952 H          12.6905    8.1054    8.5746 H     244  UNL244      0.0241
   1953 CL         15.3802    5.3781   11.8482 Cl    245  UNL245     -0.1257
   1954 C          13.8377    4.4964   11.8482 C.3   245  UNL245      0.0198
   1955 C          12.6732    5.4642   11.8482 C.3   245  UNL245     -0.0517
   1956 H          13.8131    3.8593   10.9596 H     245  UNL245      0.0427
   1957 H          13.8131    3.8593   12.7367 H     245  UNL245      0.0427
   1958 H          11.7263    4.9149   11.8482 H     245  UNL245      0.0241
   1959 H          12.6905    6.1054   12.7356 H     245  UNL245      0.0241
   1960 H          12.6905    6.1054   10.9608 H     245  UNL245      0.0241
   1961 CL         15.3802    7.3781   14.2345 Cl    246  UNL246     -0.1257
   1962 C          13.8377    6.4964   14.2345 C.3   246  UNL246      0.0198
   1963 C          12.6732    7.4642   14.2345 C.3   246  UNL246     -0.0517
   1964 H          13.8131    5.8593   13.3459 H     246  UNL246      0.0427
   1965 H          13.8131    5.8593   15.1230 H     246  UNL246      0.0427
   1966 H          11.7263    6.9149   14.2345 H     246  UNL246      0.0241
   1967 H          12.6905    8.1054   15.1219 H     246  UNL246      0.0241
   1968 H          12.6905    8.1054   13.3471 H     246  UNL246      0.0241
   1969 CL         15.3802    7.3781   16.6208 Cl    247  UNL247     -0.1257
   1970 C          13.8377    6.4964   16.6208 C.3   247  UNL247      0.0198
   1971 C          12.6732    7.4642   16.6208 C.3   247  UNL247     -0.0517
   1972 H          13.8131    5.8593   15.7321 H     247  UNL247      0.0427
   1973 H          13.8131    5.8593   17.5093 H     247  UNL247      0.0427
   1974 H          11.7263    6.9149   16.6208 H     247  UNL247      0.0241
   1975 H          12.6905    8.1054   17.5082 H     247  UNL247      0.0241
   1976 H          12.6905    8.1054   15.7334 H     247  UNL247      0.0241
   1977 CL         15.3802    3.3781   19.0070 Cl    248  UNL248     -0.1257
   1978 C          13.8377    2.4964   19.0070 C.3   248  UNL248      0.0198
   1979 C          12.6732    3.4642   19.0070 C.3   248  UNL248     -0.0517
   1980 H          13.8131    1.8593   18.1184 H     248  UNL248      0.0427
   1981 H          13.8131    1.8593   19.8955 H     248  UNL248      0.0427
   1982 H          11.7263    2.9149   19.0070 H     248  UNL248      0.0241
   1983 H          12.6905    4.1054   19.8944 H     248  UNL248      0.0241
   1984 H          12.6905    4.1054   18.1196 H     248  UNL248      0.0241
   1985 CL         15.3802    5.3781   21.3933 Cl    249  UNL249     -0.1257
   1986 C          13.8377    4.4964   21.3933 C.3   249  UNL249      0.0198
   1987 C          12.6732    5.4642   21.3933 C.3   249  UNL249     -0.0517
   1988 H          13.8131    3.8593   20.5047 H     249  UNL249      0.0427
   1989 H          13.8131    3.8593   22.2818 H     249  UNL249      0.0427
   1990 H          11.7263    4.9149   21.3933 H     249  UNL249      0.0241
   1991 H          12.6905    6.1054   22.2807 H     249  UNL249      0.0241
   1992 H          12.6905    6.1054   20.5059 H     249  UNL249      0.0241
   1993 CL         15.3802    8.0458   -0.0831 Cl    250  UNL250     -0.1257
   1994 C          13.8377    7.1641   -0.0831 C.3   250  UNL250      0.0198
   1995 C          12.6732    8.1319   -0.0831 C.3   250  UNL250     -0.0517
   1996 H          13.8131    6.5270   -0.9717 H     250  UNL250      0.0427
   1997 H          13.8131    6.5270    0.8054 H     250  UNL250      0.0427
   1998 H          11.7263    7.5826   -0.0831 H     250  UNL250      0.0241
   1999 H          12.6905    8.7731    0.8043 H     250  UNL250      0.0241
   2000 H          12.6905    8.7731   -0.9705 H     250  UNL250      0.0241
   2001 CL         15.3802   10.0458    2.3032 Cl    251  UNL251     -0.1257
   2002 C          13.8377    9.1641    2.3032 C.3   251  UNL251      0.0198
   2003 C          12.6732   10.1319    2.3032 C.3   251  UNL251     -0.0517
   2004 H          13.8131    8.5270    1.4146 H     251  UNL251      0.0427
   2005 H          13.8131    8.5270    3.1917 H     251  UNL251      0.0427
   2006 H          11.7263    9.5826    2.3032 H     251  UNL251      0.0241
   2007 H          12.6905   10.7731    3.1906 H     251  UNL251      0.0241
   2008 H          12.6905   10.7731    1.4158 H     251  UNL251      0.0241
   2009 CL         15.3802    6.0458    4.6895 Cl    252  UNL252     -0.1257
   2010 C          13.8377    5.1641    4.6895 C.3   252  UNL252      0.0198
   2011 C          12.6732    6.1319    4.6895 C.3   252  UNL252     -0.0517
   2012 H          13.8131    4.5270    3.8008 H     252  UNL252      0.0427
   2013 H          13.8131    4.5270    5.5780 H     252  UNL252      0.0427
   2014 H          11.7263    5.5826    4.6895 H     252  UNL252      0.0241
   2015 H          12.6905    6.7731    5.5768 H     252  UNL252      0.0241
   2016 H          12.6905    6.7731    3.8021 H     252  UNL252      0.0241
   2017 CL         15.3802   10.0458    7.0757 Cl    253  UNL253     -0.1257
   2018 C          13.8377    9.1641    7.0757 C.3   253  UNL253      0.0198
   2019 C          12.6732   10.1319    7.0757 C.3   253  UNL253     -0.0517
   2020 H          13.8131    8.5270    6.1871 H     253  UNL253      0.0427
   2021 H          13.8131    8.5270    7.9642 H     253  UNL253      0.0427
   2022 H          11.7263    9.5826    7.0757 H     253  UNL253      0.0241
   2023 H          12.6905   10.7731    7.9631 H     253  UNL253      0.0241
   2024 H          12.6905   10.7731    6.1883 H     253  UNL253      0.0241
   2025 CL         15.3802    8.0458    9.4620 Cl    254  UNL254     -0.1257
   2026 C          13.8377    7.1641    9.4620 C.3   254  UNL254      0.0198
   2027 C          12.6732    8.1319    9.4620 C.3   254  UNL254     -0.0517
   2028 H          13.8131    6.5270    8.5734 H     254  UNL254      0.0427
   2029 H          13.8131    6.5270   10.3505 H     254  UNL254      0.0427
   2030 H          11.7263    7.5826    9.4620 H     254  UNL254      0.0241
   2031 H          12.6905    8.7731   10.3494 H     254  UNL254      0.0241
   2032 H          12.6905    8.7731    8.5746 H     254  UNL254      0.0241
   2033 CL         15.3802   10.0458   11.8482 Cl    255  UNL255     -0.1257
   2034 C          13.8377    9.1641   11.8482 C.3   255  UNL255      0.0198
   2035 C          12.6732   10.1319   11.8482 C.3   255  UNL255     -0.0517
   2036 H          13.8131    8.5270   10.9596 H     255  UNL255      0.0427
   2037 H          13.8131    8.5270   12.7367 H     255  UNL255      0.0427
   2038 H          11.7263    9.5826   11.8482 H     255  UNL255      0.0241
   2039 H          12.6905   10.7731   12.7356 H     255  UNL255      0.0241
   2040 H          12.6905   10.7731   10.9608 H     255  UNL255      0.0241
   2041 CL         15.3802    8.0458   14.2345 Cl    256  UNL256     -0.1257
   2042 C          13.8377    7.1641   14.2345 C.3   256  UNL256      0.0198
   2043 C          12.6732    8.1319   14.2345 C.3   256  UNL256     -0.0517
   2044 H          13.8131    6.5270   13.3459 H     256  UNL256      0.0427
   2045 H          13.8131    6.5270   15.1230 H     256  UNL256      0.0427
   2046 H          11.7263    7.5826   14.2345 H     256  UNL256      0.0241
   2047 H          12.6905    8.7731   15.1219 H     256  UNL256      0.0241
   2048 H          12.6905    8.7731   13.3471 H     256  UNL256      0.0241
   2049 CL         15.3802   10.0458   16.6208 Cl    257  UNL257     -0.1257
   2050 C          13.8377    9.1641   16.6208 C.3   257  UNL257      0.0198
   2051 C          12.6732   10.1319   16.6208 C.3   257  UNL257     -0.0517
   2052 H          13.8131    8.5270   15.7321 H     257  UNL257      0.0427
   2053 H          13.8131    8.5270   17.5093 H     257  UNL257      0.0427
   2054 H          11.7263    9.5826   16.6208 H     257  UNL257      0.0241
   2055 H          12.6905   10.7731   17.5082 H     257  UNL257      0.0241
   2056 H          12.6905   10.7731   15.7334 H     257  UNL257      0.0241
   2057 CL         15.3802    6.0458   19.0070 Cl    258  UNL258     -0.1257
   2058 C          13.8377    5.1641   19.0070 C.3   258  UNL258      0.0198
   2059 C          12.6732    6.1319   19.0070 C.3   258  UNL258     -0.0517
   2060 H          13.8131    4.5270   18.1184 H     258  UNL258      0.0427
   2061 H          13.8131    4.5270   19.8955 H     258  UNL258      0.0427
   2062 H          11.7263    5.5826   19.0070 H     258  UNL258      0.0241
   2063 H          12.6905    6.7731   19.8944 H     258  UNL258      0.0241
   2064 H          12.6905    6.7731   18.1196 H     258  UNL258      0.0241
   2065 CL         15.3802    8.0458   22.3933 Cl    259  UNL259     -0.1257
   2066 C          13.8377    7.1641   22.3933 C.3   259  UNL259      0.0198
   2067 C          12.6732    8.1319   22.3933 C.3   259  UNL259     -0.0517
   2068 H          13.8131    6.5270   21.5047 H     259  UNL259      0.0427
   2069 H          13.8131    6.5270   23.2818 H     259  UNL259      0.0427
   2070 H          11.7263    7.5826   22.3933 H     259  UNL259      0.0241
   2071 H          12.6905    8.7731   23.2807 H     259  UNL259      0.0241
   2072 H          12.6905    8.7731   21.5059 H     259  UNL259      0.0241
   2073 CL         15.3802   10.7135   -0.0831 Cl    260  UNL260     -0.1257
   2074 C          13.8377    9.8318   -0.0831 C.3   260  UNL260      0.0198
   2075 C          12.6732   10.7996   -0.0831 C.3   260  UNL260     -0.0517
   2076 H          13.8131    9.1947   -0.9717 H     260  UNL260      0.0427
   2077 H          13.8131    9.1947    0.8054 H     260  UNL260      0.0427
   2078 H          11.7263   10.2503   -0.0831 H     260  UNL260      0.0241
   2079 H          12.6905   11.4408    0.8043 H     260  UNL260      0.0241
   2080 H          12.6905   11.4408   -0.9705 H     260  UNL260      0.0241
   2081 CL         15.3802   12.7135    2.3032 Cl    261  UNL261     -0.1257
   2082 C          13.8377   11.8318    2.3032 C.3   261  UNL261      0.0198
   2083 C          12.6732   12.7996    2.3032 C.3   261  UNL261     -0.0517
   2084 H          13.8131   11.1947    1.4146 H     261  UNL261      0.0427
   2085 H          13.8131   11.1947    3.1917 H     261  UNL261      0.0427
   2086 H          11.7263   12.2503    2.3032 H     261  UNL261      0.0241
   2087 H          12.6905   13.4408    3.1906 H     261  UNL261      0.0241
   2088 H          12.6905   13.4408    1.4158 H     261  UNL261      0.0241
   2089 CL         13.3802   10.7135    4.6895 Cl    262  UNL262     -0.1257
   2090 C          11.8377    9.8318    4.6895 C.3   262  UNL262      0.0198
   2091 C          10.6732   10.7996    4.6895 C.3   262  UNL262     -0.0517
   2092 H          11.8131    9.1947    3.8008 H     262  UNL262      0.0427
   2093 H          11.8131    9.1947    5.5780 H     262  UNL262      0.0427
   2094 H           9.7263   10.2503    4.6895 H     262  UNL262      0.0241
   2095 H          10.6905   11.4408    5.5768 H     262  UNL262      0.0241
   2096 H          10.6905   11.4408    3.8021 H     262  UNL262      0.0241
   2097 CL         15.3802   12.7135    7.0757 Cl    263  UNL263     -0.1257
   2098 C          13.8377   11.8318    7.0757 C.3   263  UNL263      0.0198
   2099 C          12.6732   12.7996    7.0757 C.3   263  UNL263     -0.0517
   2100 H          13.8131   11.1947    6.1871 H     263  UNL263      0.0427
   2101 H          13.8131   11.1947    7.9642 H     263  UNL263      0.0427
   2102 H          11.7263   12.2503    7.0757 H     263  UNL263      0.0241
   2103 H          12.6905   13.4408    7.9631 H     263  UNL263      0.0241
   2104 H          12.6905   13.4408    6.1883 H     263  UNL263      0.0241
   2105 CL         15.3802   12.7135    9.4620 Cl    264  UNL264     -0.1257
   2106 C          13.8377   11.8318    9.4620 C.3   264  UNL264      0.0198
   2107 C          12.6732   12.7996    9.4620 C.3   264  UNL264     -0.0517
   2108 H          13.8131   11.1947    8.5734 H     264  UNL264      0.0427
   2109 H          13.8131   11.1947   10.3505 H     264  UNL264      0.0427
   2110 H          11.7263   12.2503    9.4620 H     264  UNL264      0.0241
   2111 H          12.6905   13.4408   10.3494 H     264  UNL264      0.0241
   2112 H          12.6905   13.4408    8.5746 H     264  UNL264      0.0241
   2113 CL         15.3802   10.7135   11.8482 Cl    265  UNL265     -0.1257
   2114 C          13.8377    9.8318   11.8482 C.3   265  UNL265      0.0198
   2115 C          12.6732   10.7996   11.8482 C.3   265  UNL265     -0.0517
   2116 H          13.8131    9.1947   10.9596 H     265  UNL265      0.0427
   2117 H          13.8131    9.1947   12.7367 H     265  UNL265      0.0427
   2118 H          11.7263   10.2503   11.8482 H     265  UNL265      0.0241
   2119 H          12.6905   11.4408   12.7356 H     265  UNL265      0.0241
   2120 H          12.6905   11.4408   10.9608 H     265  UNL265      0.0241
   2121 CL         15.3802   12.7135   14.2345 Cl    266  UNL266     -0.1257
   2122 C          13.8377   11.8318   14.2345 C.3   266  UNL266      0.0198
   2123 C          12.6732   12.7996   14.2345 C.3   266  UNL266     -0.0517
   2124 H          13.8131   11.1947   13.3459 H     266  UNL266      0.0427
   2125 H          13.8131   11.1947   15.1230 H     266  UNL266      0.0427
   2126 H          11.7263   12.2503   14.2345 H     266  UNL266      0.0241
   2127 H          12.6905   13.4408   15.1219 H     266  UNL266      0.0241
   2128 H          12.6905   13.4408   13.3471 H     266  UNL266      0.0241
   2129 CL         15.3802   12.7135   16.6208 Cl    267  UNL267     -0.1257
   2130 C          13.8377   11.8318   16.6208 C.3   267  UNL267      0.0198
   2131 C          12.6732   12.7996   16.6208 C.3   267  UNL267     -0.0517
   2132 H          13.8131   11.1947   15.7321 H     267  UNL267      0.0427
   2133 H          13.8131   11.1947   17.5093 H     267  UNL267      0.0427
   2134 H          11.7263   12.2503   16.6208 H     267  UNL267      0.0241
   2135 H          12.6905   13.4408   17.5082 H     267  UNL267      0.0241
   2136 H          12.6905   13.4408   15.7334 H     267  UNL267      0.0241
   2137 CL         13.3802   10.1456   19.2916 Cl    268  UNL268     -0.1257
   2138 C          11.8377   10.6733   18.5852 C.3   268  UNL268      0.0198
   2139 C          10.6732   10.0941   19.3606 C.3   268  UNL268     -0.0517
   2140 H          11.8131   11.7665   18.6066 H     268  UNL268      0.0427
   2141 H          11.8131   10.3427   17.5431 H     268  UNL268      0.0427
   2142 H           9.7263   10.4228   18.9205 H     268  UNL268      0.0241
   2143 H          10.6905    8.9994   19.3432 H     268  UNL268      0.0241
   2144 H          10.6905   10.4213   20.4053 H     268  UNL268      0.0241
   2145 CL         15.3802   10.7135   22.3933 Cl    269  UNL269     -0.1257
   2146 C          13.8377    9.8318   22.3933 C.3   269  UNL269      0.0198
   2147 C          12.6732   10.7996   22.3933 C.3   269  UNL269     -0.0517
   2148 H          13.8131    9.1947   21.5047 H     269  UNL269      0.0427
   2149 H          13.8131    9.1947   23.2818 H     269  UNL269      0.0427
   2150 H          11.7263   10.2503   22.3933 H     269  UNL269      0.0241
   2151 H          12.6905   11.4408   23.2807 H     269  UNL269      0.0241
   2152 H          12.6905   11.4408   21.5059 H     269  UNL269      0.0241
   2153 CL         15.3802   15.3811   -0.0831 Cl    270  UNL270     -0.1257
   2154 C          13.8377   14.4994   -0.0831 C.3   270  UNL270      0.0198
   2155 C          12.6732   15.4672   -0.0831 C.3   270  UNL270     -0.0517
   2156 H          13.8131   13.8623   -0.9717 H     270  UNL270      0.0427
   2157 H          13.8131   13.8623    0.8054 H     270  UNL270      0.0427
   2158 H          11.7263   14.9179   -0.0831 H     270  UNL270      0.0241
   2159 H          12.6905   16.1084    0.8043 H     270  UNL270      0.0241
   2160 H          12.6905   16.1084   -0.9705 H     270  UNL270      0.0241
   2161 CL         15.3802   13.3811    2.3032 Cl    271  UNL271     -0.1257
   2162 C          13.8377   12.4994    2.3032 C.3   271  UNL271      0.0198
   2163 C          12.6732   13.4672    2.3032 C.3   271  UNL271     -0.0517
   2164 H          13.8131   11.8623    1.4146 H     271  UNL271      0.0427
   2165 H          13.8131   11.8623    3.1917 H     271  UNL271      0.0427
   2166 H          11.7263   12.9179    2.3032 H     271  UNL271      0.0241
   2167 H          12.6905   14.1084    3.1906 H     271  UNL271      0.0241
   2168 H          12.6905   14.1084    1.4158 H     271  UNL271      0.0241
   2169 CL         13.3802   13.3811    4.6895 Cl    272  UNL272     -0.1257
   2170 C          11.8377   12.4994    4.6895 C.3   272  UNL272      0.0198
   2171 C          10.6732   13.4672    4.6895 C.3   272  UNL272     -0.0517
   2172 H          11.8131   11.8623    3.8008 H     272  UNL272      0.0427
   2173 H          11.8131   11.8623    5.5780 H     272  UNL272      0.0427
   2174 H           9.7263   12.9179    4.6895 H     272  UNL272      0.0241
   2175 H          10.6905   14.1084    5.5768 H     272  UNL272      0.0241
   2176 H          10.6905   14.1084    3.8021 H     272  UNL272      0.0241
   2177 CL         15.3802   15.3811    7.0757 Cl    273  UNL273     -0.1257
   2178 C          13.8377   14.4994    7.0757 C.3   273  UNL273      0.0198
   2179 C          12.6732   15.4672    7.0757 C.3   273  UNL273     -0.0517
   2180 H          13.8131   13.8623    6.1871 H     273  UNL273      0.0427
   2181 H          13.8131   13.8623    7.9642 H     273  UNL273      0.0427
   2182 H          11.7263   14.9179    7.0757 H     273  UNL273      0.0241
   2183 H          12.6905   16.1084    7.9631 H     273  UNL273      0.0241
   2184 H          12.6905   16.1084    6.1883 H     273  UNL273      0.0241
   2185 CL         15.3802   13.3811    9.4620 Cl    274  UNL274     -0.1257
   2186 C          13.8377   12.4994    9.4620 C.3   274  UNL274      0.0198
   2187 C          12.6732   13.4672    9.4620 C.3   274  UNL274     -0.0517
   2188 H          13.8131   11.8623    8.5734 H     274  UNL274      0.0427
   2189 H          13.8131   11.8623   10.3505 H     274  UNL274      0.0427
   2190 H          11.7263   12.9179    9.4620 H     274  UNL274      0.0241
   2191 H          12.6905   14.1084   10.3494 H     274  UNL274      0.0241
   2192 H          12.6905   14.1084    8.5746 H     274  UNL274      0.0241
   2193 CL         15.3802   15.3811   11.8482 Cl    275  UNL275     -0.1257
   2194 C          13.8377   14.4994   11.8482 C.3   275  UNL275      0.0198
   2195 C          12.6732   15.4672   11.8482 C.3   275  UNL275     -0.0517
   2196 H          13.8131   13.8623   10.9596 H     275  UNL275      0.0427
   2197 H          13.8131   13.8623   12.7367 H     275  UNL275      0.0427
   2198 H          11.7263   14.9179   11.8482 H     275  UNL275      0.0241
   2199 H          12.6905   16.1084   12.7356 H     275  UNL275      0.0241
   2200 H          12.6905   16.1084   10.9608 H     275  UNL275      0.0241
   2201 CL         15.3802   13.3811   14.2345 Cl    276  UNL276     -0.1257
   2202 C          13.8377   12.4994   14.2345 C.3   276  UNL276      0.0198
   2203 C          12.6732   13.4672   14.2345 C.3   276  UNL276     -0.0517
   2204 H          13.8131   11.8623   13.3459 H     276  UNL276      0.0427
   2205 H          13.8131   11.8623   15.1230 H     276  UNL276      0.0427
   2206 H          11.7263   12.9179   14.2345 H     276  UNL276      0.0241
   2207 H          12.6905   14.1084   15.1219 H     276  UNL276      0.0241
   2208 H          12.6905   14.1084   13.3471 H     276  UNL276      0.0241
   2209 CL         15.3802   13.3811   16.6208 Cl    277  UNL277     -0.1257
   2210 C          13.8377   12.4994   16.6208 C.3   277  UNL277      0.0198
   2211 C          12.6732   13.4672   16.6208 C.3   277  UNL277     -0.0517
   2212 H          13.8131   11.8623   15.7321 H     277  UNL277      0.0427
   2213 H          13.8131   11.8623   17.5093 H     277  UNL277      0.0427
   2214 H          11.7263   12.9179   16.6208 H     277  UNL277      0.0241
   2215 H          12.6905   14.1084   17.5082 H     277  UNL277      0.0241
   2216 H          12.6905   14.1084   15.7334 H     277  UNL277      0.0241
   2217 CL         15.3802   15.3811   19.0070 Cl    278  UNL278     -0.1257
   2218 C          13.8377   14.4994   19.0070 C.3   278  UNL278      0.0198
   2219 C          12.6732   15.4672   19.0070 C.3   278  UNL278     -0.0517
   2220 H          13.8131   13.8623   18.1184 H     278  UNL278      0.0427
   2221 H          13.8131   13.8623   19.8955 H     278  UNL278      0.0427
   2222 H          11.7263   14.9179   19.0070 H     278  UNL278      0.0241
   2223 H          12.6905   16.1084   19.8944 H     278  UNL278      0.0241
   2224 H          12.6905   16.1084   18.1196 H     278  UNL278      0.0241
   2225 CL         15.3802   13.3811   22.3933 Cl    279  UNL279     -0.1257
   2226 C          13.8377   12.4994   22.3933 C.3   279  UNL279      0.0198
   2227 C          12.6732   13.4672   22.3933 C.3   279  UNL279     -0.0517
   2228 H          13.8131   11.8623   21.5047 H     279  UNL279      0.0427
   2229 H          13.8131   11.8623   23.2818 H     279  UNL279      0.0427
   2230 H          11.7263   12.9179   22.3933 H     279  UNL279      0.0241
   2231 H          12.6905   14.1084   23.2807 H     279  UNL279      0.0241
   2232 H          12.6905   14.1084   21.5059 H     279  UNL279      0.0241
   2233 CL         15.3802   16.0488   -0.0831 Cl    280  UNL280     -0.1257
   2234 C          13.8377   15.1671   -0.0831 C.3   280  UNL280      0.0198
   2235 C          12.6732   16.1349   -0.0831 C.3   280  UNL280     -0.0517
   2236 H          13.8131   14.5300   -0.9717 H     280  UNL280      0.0427
   2237 H          13.8131   14.5300    0.8054 H     280  UNL280      0.0427
   2238 H          11.7263   15.5856   -0.0831 H     280  UNL280      0.0241
   2239 H          12.6905   16.7761    0.8043 H     280  UNL280      0.0241
   2240 H          12.6905   16.7761   -0.9705 H     280  UNL280      0.0241
   2241 CL         16.3802   17.0488    2.3032 Cl    281  UNL281     -0.1257
   2242 C          14.8377   16.1671    2.3032 C.3   281  UNL281      0.0198
   2243 C          13.6732   17.1349    2.3032 C.3   281  UNL281     -0.0517
   2244 H          14.8131   15.5300    1.4146 H     281  UNL281      0.0427
   2245 H          14.8131   15.5300    3.1917 H     281  UNL281      0.0427
   2246 H          12.7263   16.5856    2.3032 H     281  UNL281      0.0241
   2247 H          13.6905   17.7761    3.1906 H     281  UNL281      0.0241
   2248 H          13.6905   17.7761    1.4158 H     281  UNL281      0.0241
   2249 CL         16.3802   16.0488    4.6895 Cl    282  UNL282     -0.1257
   2250 C          14.8377   15.1671    4.6895 C.3   282  UNL282      0.0198
   2251 C          13.6732   16.1349    4.6895 C.3   282  UNL282     -0.0517
   2252 H          14.8131   14.5300    3.8008 H     282  UNL282      0.0427
   2253 H          14.8131   14.5300    5.5780 H     282  UNL282      0.0427
   2254 H          12.7263   15.5856    4.6895 H     282  UNL282      0.0241
   2255 H          13.6905   16.7761    5.5768 H     282  UNL282      0.0241
   2256 H          13.6905   16.7761    3.8021 H     282  UNL282      0.0241
   2257 CL         15.3802   17.0488    7.0757 Cl    283  UNL283     -0.1257
   2258 C          13.8377   16.1671    7.0757 C.3   283  UNL283      0.0198
   2259 C          12.6732   17.1349    7.0757 C.3   283  UNL283     -0.0517
   2260 H          13.8131   15.5300    6.1871 H     283  UNL283      0.0427
   2261 H          13.8131   15.5300    7.9642 H     283  UNL283      0.0427
   2262 H          11.7263   16.5856    7.0757 H     283  UNL283      0.0241
   2263 H          12.6905   17.7761    7.9631 H     283  UNL283      0.0241
   2264 H          12.6905   17.7761    6.1883 H     283  UNL283      0.0241
   2265 CL         16.3802   16.0488    9.4620 Cl    284  UNL284     -0.1257
   2266 C          14.8377   15.1671    9.4620 C.3   284  UNL284      0.0198
   2267 C          13.6732   16.1349    9.4620 C.3   284  UNL284     -0.0517
   2268 H          14.8131   14.5300    8.5734 H     284  UNL284      0.0427
   2269 H          14.8131   14.5300   10.3505 H     284  UNL284      0.0427
   2270 H          12.7263   15.5856    9.4620 H     284  UNL284      0.0241
   2271 H          13.6905   16.7761   10.3494 H     284  UNL284      0.0241
   2272 H          13.6905   16.7761    8.5746 H     284  UNL284      0.0241
   2273 CL         15.3802   17.0488   11.8482 Cl    285  UNL285     -0.1257
   2274 C          13.8377   16.1671   11.8482 C.3   285  UNL285      0.0198
   2275 C          12.6732   17.1349   11.8482 C.3   285  UNL285     -0.0517
   2276 H          13.8131   15.5300   10.9596 H     285  UNL285      0.0427
   2277 H          13.8131   15.5300   12.7367 H     285  UNL285      0.0427
   2278 H          11.7263   16.5856   11.8482 H     285  UNL285      0.0241
   2279 H          12.6905   17.7761   12.7356 H     285  UNL285      0.0241
   2280 H          12.6905   17.7761   10.9608 H     285  UNL285      0.0241
   2281 CL         16.3802   16.0488   14.2345 Cl    286  UNL286     -0.1257
   2282 C          14.8377   15.1671   14.2345 C.3   286  UNL286      0.0198
   2283 C          13.6732   16.1349   14.2345 C.3   286  UNL286     -0.0517
   2284 H          14.8131   14.5300   13.3459 H     286  UNL286      0.0427
   2285 H          14.8131   14.5300   15.1230 H     286  UNL286      0.0427
   2286 H          12.7263   15.5856   14.2345 H     286  UNL286      0.0241
   2287 H          13.6905   16.7761   15.1219 H     286  UNL286      0.0241
   2288 H          13.6905   16.7761   13.3471 H     286  UNL286      0.0241
   2289 CL         15.3802   17.0488   16.6208 Cl    287  UNL287     -0.1257
   2290 C          13.8377   16.1671   16.6208 C.3   287  UNL287      0.0198
   2291 C          12.6732   17.1349   16.6208 C.3   287  UNL287     -0.0517
   2292 H          13.8131   15.5300   15.7321 H     287  UNL287      0.0427
   2293 H          13.8131   15.5300   17.5093 H     287  UNL287      0.0427
   2294 H          11.7263   16.5856   16.6208 H     287  UNL287      0.0241
   2295 H          12.6905   17.7761   17.5082 H     287  UNL287      0.0241
   2296 H          12.6905   17.7761   15.7334 H     287  UNL287      0.0241
   2297 CL         16.3802   15.4809   19.2916 Cl    288  UNL288     -0.1257
   2298 C          14.8377   16.0086   18.5852 C.3   288  UNL288      0.0198
   2299 C          13.6732   15.4294   19.3606 C.3   288  UNL288     -0.0517
   2300 H          14.8131   17.1018   18.6066 H     288  UNL288      0.0427
   2301 H          14.8131   15.6781   17.5431 H     288  UNL288      0.0427
   2302 H          12.7263   15.7582   18.9205 H     288  UNL288      0.0241
   2303 H          13.6905   14.3347   19.3432 H     288  UNL288      0.0241
   2304 H          13.6905   15.7566   20.4053 H     288  UNL288      0.0241
   2305 CL         15.3802   16.0488   22.3933 Cl    289  UNL289     -0.1257
   2306 C          13.8377   15.1671   22.3933 C.3   289  UNL289      0.0198
   2307 C          12.6732   16.1349   22.3933 C.3   289  UNL289     -0.0517
   2308 H          13.8131   14.5300   21.5047 H     289  UNL289      0.0427
   2309 H          13.8131   14.5300   23.2818 H     289  UNL289      0.0427
   2310 H          11.7263   15.5856   22.3933 H     289  UNL289      0.0241
   2311 H          12.6905   16.7761   23.2807 H     289  UNL289      0.0241
   2312 H          12.6905   16.7761   21.5059 H     289  UNL289      0.0241
@<TRIPOS>BOND
     1     1     2    1
     2     2     3    1
     3     2     4    1
     4     2     5    1
     5     3     6    1
     6     3     7    1
     7     3     8    1
     8     9    10    1
     9    10    11    1
    10    10    12    1
    11    10    13    1
    12    11    14    1
    13    11    15    1
    14    11    16    1
    15    17    18    1
    16    18    19    1
    17    18    20    1
    18    18    21    1
    19    19    22    1
    20    19    23    1
    21    19    24    1
    22    25    26    1
    23    26    27    1
    24    26    28    1
    25    26    29    1
    26    27    30    1
    27    27    31    1
    28    27    32    1
    29    33    34    1
    30    34    35    1
    31    34    36    1
    32    34    37    1
    33    35    38    1
    34    35    39    1
    35    35    40    1
    36    41    42    1
    37    42    43    1
    38    42    44    1
    39    42    45    1
    40    43    46    1
    41    43    47    1
    42    43    48    1
    43    49    50    1
    44    50    51    1
    45    50    52    1
    46    50    53    1
    47    51    54    1
    48    51    55    1
    49    51    56    1
    50    57    58    1
    51    58    59    1
    52    58    60    1
    53    58    61    1
    54    59    62    1
    55    59    63    1
    56    59    64    1
    57    65    66    1
    58    66    67    1
    59    66    68    1
    60    66    69    1
    61    67    70    1
    62    67    71    1
    63    67    72    1
    64    73    74    1
    65    74    75    1
    66    74    76    1
    67    74    77    1
    68    75    78    1
    69    75    79    1
    70    75    80    1
    71    81    82    1
    72    82    83    1
    73    82    84    1
    74    82    85    1
    75    83    86    1
    76    83    87    1
    77    83    88    1
    78    89    90    1
    79    90    91    1
    80    90    92    1
    81    90    93    1
    82    91    94    1
    83    91    95    1
    84    91    96    1
    85    97    98    1
    86    98    99    1
    87    98   100    1
    88    98   101    1
    89    99   102    1
    90    99   103    1
    91    99   104    1
    92   105   106    1
    93   106   107    1
    94   106   108    1
    95   106   109    1
    96   107   110    1
    97   107   111    1
    98   107   112    1
    99   113   114    1
   100   114   115    1
   101   114   116    1
   102   114   117    1
   103   115   118    1
   104   115   119    1
   105   115   120    1
   106   121   122    1
   107   122   123    1
   108   122   124    1
   109   122   125    1
   110   123   126    1
   111   123   127    1
   112   123   128    1
   113   129   130    1
   114   130   131    1
   115   130   132    1
   116   130   133    1
   117   131   134    1
   118   131   135    1
   119   131   136    1
   120   137   138    1
   121   138   139    1
   122   138   140    1
   123   138   141    1
   124   139   142    1
   125   139   143    1
   126   139   144    1
   127   145   146    1
   128   146   147    1
   129   146   148    1
   130   146   149    1
   131   147   150    1
   132   147   151    1
   133   147   152    1
   134   153   154    1
   135   154   155    1
   136   154   156    1
   137   154   157    1
   138   155   158    1
   139   155   159    1
   140   155   160    1
   141   161   162    1
   142   162   163    1
   143   162   164    1
   144   162   165    1
   145   163   166    1
   146   163   167    1
   147   163   168    1
   148   169   170    1
   149   170   171    1
   150   170   172    1
   151   170   173    1
   152   171   174    1
   153   171   175    1
   154   171   176    1
   155   177   178    1
   156   178   179    1
   157   178   180    1
   158   178   181    1
   159   179   182    1
   160   179   183    1
   161   179   184    1
   162   185   186    1
   163   186   187    1
   164   186   188    1
   165   186   189    1
   166   187   190    1
   167   187   191    1
   168   187   192    1
   169   193   194    1
   170   194   195    1
   171   194   196    1
   172   194   197    1
   173   195   198    1
   174   195   199    1
   175   195   200    1
   176   201   202    1
   177   202   203    1
   178   202   204    1
   179   202   205    1
   180   203   206    1
   181   203   207    1
   182   203   208    1
   183   209   210    1
   184   210   211    1
   185   210   212    1
   186   210   213    1
   187   211   214    1
   188   211   215    1
   189   211   216    1
   190   217   218    1
   191   218   219    1
   192   218   220    1
   193   218   221    1
   194   219   222    1
   195   219   223    1
   196   219   224    1
   197   225   226    1
   198   226   227    1
   199   226   228    1
   200   226   229    1
   201   227   230    1
   202   227   231    1
   203   227   232    1
   204   233   234    1
   205   234   235    1
   206   234   236    1
   207   234   237    1
   208   235   238    1
   209   235   239    1
   210   235   240    1
   211   241   242    1
   212   242   243    1
   213   242   244    1
   214   242   245    1
   215   243   246    1
   216   243   247    1
   217   243   248    1
   218   249   250    1
   219   250   251    1
   220   250   252    1
   221   250   253    1
   222   251   254    1
   223   251   255    1
   224   251   256    1
   225   257   258    1
   226   258   259    1
   227   258   260    1
   228   258   261    1
   229   259   262    1
   230   259   263    1
   231   259   264    1
   232   265   266    1
   233   266   267    1
   234   266   268    1
   235   266   269    1
   236   267   270    1
   237   267   271    1
   238   267   272    1
   239   273   274    1
   240   274   275    1
   241   274   276    1
   242   274   277    1
   243   275   278    1
   244   275   279    1
   245   275   280    1
   246   281   282    1
   247   282   283    1
   248   282   284    1
   249   282   285    1
   250   283   286    1
   251   283   287    1
   252   283   288    1
   253   289   290    1
   254   290   291    1
   255   290   292    1
   256   290   293    1
   257   291   294    1
   258   291   295    1
   259   291   296    1
   260   297   298    1
   261   298   299    1
   262   298   300    1
   263   298   301    1
   264   299   302    1
   265   299   303    1
   266   299   304    1
   267   305   306    1
   268   306   307    1
   269   306   308    1
   270   306   309    1
   271   307   310    1
   272   307   311    1
   273   307   312    1
   274   313   314    1
   275   314   315    1
   276   314   316    1
   277   314   317    1
   278   315   318    1
   279   315   319    1
   280   315   320    1
   281   321   322    1
   282   322   323    1
   283   322   324    1
   284   322   325    1
   285   323   326    1
   286   323   327    1
   287   323   328    1
   288   329   330    1
   289   330   331    1
   290   330   332    1
   291   330   333    1
   292   331   334    1
   293   331   335    1
   294   331   336    1
   295   337   338    1
   296   338   339    1
   297   338   340    1
   298   338   341    1
   299   339   342    1
   300   339   343    1
   301   339   344    1
   302   345   346    1
   303   346   347    1
   304   346   348    1
   305   346   349    1
   306   347   350    1
   307   347   351    1
   308   347   352    1
   309   353   354    1
   310   354   355    1
   311   354   356    1
   312   354   357    1
   313   355   358    1
   314   355   359    1
   315   355   360    1
   316   361   362    1
   317   362   363    1
   318   362   364    1
   319   362   365    1
   320   363   366    1
   321   363   367    1
   322   363   368    1
   323   369   370    1
   324   370   371    1
   325   370   372    1
   326   370   373    1
   327   371   374    1
   328   371   375    1
   329   371   376    1
   330   377   378    1
   331   378   379    1
   332   378   380    1
   333   378   381    1
   334   379   382    1
   335   379   383    1
   336   379   384    1
   337   385   386    1
   338   386   387    1
   339   386   388    1
   340   386   389    1
   341   387   390    1
   342   387   391    1
   343   387   392    1
   344   393   394    1
   345   394   395    1
   346   394   396    1
   347   394   397    1
   348   395   398    1
   349   395   399    1
   350   395   400    1
   351   401   402    1
   352   402   403    1
   353   402   404    1
   354   402   405    1
   355   403   406    1
   356   403   407    1
   357   403   408    1
   358   409   410    1
   359   410   411    1
   360   410   412    1
   361   410   413    1
   362   411   414    1
   363   411   415    1
   364   411   416    1
   365   417   418    1
   366   418   419    1
   367   418   420    1
   368   418   421    1
   369   419   422    1
   370   419   423    1
   371   419   424    1
   372   425   426    1
   373   426   427    1
   374   426   428    1
   375   426   429    1
   376   427   430    1
   377   427   431    1
   378   427   432    1
   379   433   434    1
   380   434   435    1
   381   434   436    1
   382   434   437    1
   383   435   438    1
   384   435   439    1
   385   435   440    1
   386   441   442    1
   387   442   443    1
   388   442   444    1
   389   442   445    1
   390   443   446    1
   391   443   447    1
   392   443   448    1
   393   449   450    1
   394   450   451    1
   395   450   452    1
   396   450   453    1
   397   451   454    1
   398   451   455    1
   399   451   456    1
   400   457   458    1
   401   458   459    1
   402   458   460    1
   403   458   461    1
   404   459   462    1
   405   459   463    1
   406   459   464    1
   407   465   466    1
   408   466   467    1
   409   466   468    1
   410   466   469    1
   411   467   470    1
   412   467   471    1
   413   467   472    1
   414   473   474    1
   415   474   475    1
   416   474   476    1
   417   474   477    1
   418   475   478    1
   419   475   479    1
   420   475   480    1
   421   481   482    1
   422   482   483    1
   423   482   484    1
   424   482   485    1
   425   483   486    1
   426   483   487    1
   427   483   488    1
   428   489   490    1
   429   490   491    1
   430   490   492    1
   431   490   493    1
   432   491   494    1
   433   491   495    1
   434   491   496    1
   435   497   498    1
   436   498   499    1
   437   498   500    1
   438   498   501    1
   439   499   502    1
   440   499   503    1
   441   499   504    1
   442   505   506    1
   443   506   507    1
   444   506   508    1
   445   506   509    1
   446   507   510    1
   447   507   511    1
   448   507   512    1
   449   513   514    1
   450   514   515    1
   451   514   516    1
   452   514   517    1
   453   515   518    1
   454   515   519    1
   455   515   520    1
   456   521   522    1
   457   522   523    1
   458   522   524    1
   459   522   525    1
   460   523   526    1
   461   523   527    1
   462   523   528    1
   463   529   530    1
   464   530   531    1
   465   530   532    1
   466   530   533    1
   467   531   534    1
   468   531   535    1
   469   531   536    1
   470   537   538    1
   471   538   539    1
   472   538   540    1
   473   538   541    1
   474   539   542    1
   475   539   543    1
   476   539   544    1
   477   545   546    1
   478   546   547    1
   479   546   548    1
   480   546   549    1
   481   547   550    1
   482   547   551    1
   483   547   552    1
   484   553   554    1
   485   554   555    1
   486   554   556    1
   487   554   557    1
   488   555   558    1
   489   555   559    1
   490   555   560    1
   491   561   562    1
   492   562   563    1
   493   562   564    1
   494   562   565    1
   495   563   566    1
   496   563   567    1
   497   563   568    1
   498   569   570    1
   499   570   571    1
   500   570   572    1
   501   570   573    1
   502   571   574    1
   503   571   575    1
   504   571   576    1
   505   577   578    1
   506   578   579    1
   507   578   580    1
   508   578   581    1
   509   579   582    1
   510   579   583    1
   511   579   584    1
   512   585   586    1
   513   586   587    1
   514   586   588    1
   515   586   589    1
   516   587   590    1
   517   587   591    1
   518   587   592    1
   519   593   594    1
   520   594   595    1
   521   594   596    1
   522   594   597    1
   523   595   598    1
   524   595   599    1
   525   595   600    1
   526   601   602    1
   527   602   603    1
   528   602   604    1
   529   602   605    1
   530   603   606    1
   531   603   607    1
   532   603   608    1
   533   609   610    1
   534   610   611    1
   535   610   612    1
   536   610   613    1
   537   611   614    1
   538   611   615    1
   539   611   616    1
   540   617   618    1
   541   618   619    1
   542   618   620    1
   543   618   621    1
   544   619   622    1
   545   619   623    1
   546   619   624    1
   547   625   626    1
   548   626   627    1
   549   626   628    1
   550   626   629    1
   551   627   630    1
   552   627   631    1
   553   627   632    1
   554   633   634    1
   555   634   635    1
   556   634   636    1
   557   634   637    1
   558   635   638    1
   559   635   639    1
   560   635   640    1
   561   641   642    1
   562   642   643    1
   563   642   644    1
   564   642   645    1
   565   643   646    1
   566   643   647    1
   567   643   648    1
   568   649   650    1
   569   650   651    1
   570   650   652    1
   571   650   653    1
   572   651   654    1
   573   651   655    1
   574   651   656    1
   575   657   658    1
   576   658   659    1
   577   658   660    1
   578   658   661    1
   579   659   662    1
   580   659   663    1
   581   659   664    1
   582   665   666    1
   583   666   667    1
   584   666   668    1
   585   666   669    1
   586   667   670    1
   587   667   671    1
   588   667   672    1
   589   673   674    1
   590   674   675    1
   591   674   676    1
   592   674   677    1
   593   675   678    1
   594   675   679    1
   595   675   680    1
   596   681   682    1
   597   682   683    1
   598   682   684    1
   599   682   685    1
   600   683   686    1
   601   683   687    1
   602   683   688    1
   603   689   690    1
   604   690   691    1
   605   690   692    1
   606   690   693    1
   607   691   694    1
   608   691   695    1
   609   691   696    1
   610   697   698    1
   611   698   699    1
   612   698   700    1
   613   698   701    1
   614   699   702    1
   615   699   703    1
   616   699   704    1
   617   705   706    1
   618   706   707    1
   619   706   708    1
   620   706   709    1
   621   707   710    1
   622   707   711    1
   623   707   712    1
   624   713   714    1
   625   714   715    1
   626   714   716    1
   627   714   717    1
   628   715   718    1
   629   715   719    1
   630   715   720    1
   631   721   722    1
   632   722   723    1
   633   722   724    1
   634   722   725    1
   635   723   726    1
   636   723   727    1
   637   723   728    1
   638   729   730    1
   639   730   731    1
   640   730   732    1
   641   730   733    1
   642   731   734    1
   643   731   735    1
   644   731   736    1
   645   737   738    1
   646   738   739    1
   647   738   740    1
   648   738   741    1
   649   739   742    1
   650   739   743    1
   651   739   744    1
   652   745   746    1
   653   746   747    1
   654   746   748    1
   655   746   749    1
   656   747   750    1
   657   747   751    1
   658   747   752    1
   659   753   754    1
   660   754   755    1
   661   754   756    1
   662   754   757    1
   663   755   758    1
   664   755   759    1
   665   755   760    1
   666   761   762    1
   667   762   763    1
   668   762   764    1
   669   762   765    1
   670   763   766    1
   671   763   767    1
   672   763   768    1
   673   769   770    1
   674   770   771    1
   675   770   772    1
   676   770   773    1
   677   771   774    1
   678   771   775    1
   679   771   776    1
   680   777   778    1
   681   778   779    1
   682   778   780    1
   683   778   781    1
   684   779   782    1
   685   779   783    1
   686   779   784    1
   687   785   786    1
   688   786   787    1
   689   786   788    1
   690   786   789    1
   691   787   790    1
   692   787   791    1
   693   787   792    1
   694   793   794    1
   695   794   795    1
   696   794   796    1
   697   794   797    1
   698   795   798    1
   699   795   799    1
   700   795   800    1
   701   801   802    1
   702   802   803    1
   703   802   804    1
   704   802   805    1
   705   803   806    1
   706   803   807    1
   707   803   808    1
   708   809   810    1
   709   810   811    1
   710   810   812    1
   711   810   813    1
   712   811   814    1
   713   811   815    1
   714   811   816    1
   715   817   818    1
   716   818   819    1
   717   818   820    1
   718   818   821    1
   719   819   822    1
   720   819   823    1
   721   819   824    1
   722   825   826    1
   723   826   827    1
   724   826   828    1
   725   826   829    1
   726   827   830    1
   727   827   831    1
   728   827   832    1
   729   833   834    1
   730   834   835    1
   731   834   836    1
   732   834   837    1
   733   835   838    1
   734   835   839    1
   735   835   840    1
   736   841   842    1
   737   842   843    1
   738   842   844    1
   739   842   845    1
   740   843   846    1
   741   843   847    1
   742   843   848    1
   743   849   850    1
   744   850   851    1
   745   850   852    1
   746   850   853    1
   747   851   854    1
   748   851   855    1
   749   851   856    1
   750   857   858    1
   751   858   859    1
   752   858   860    1
   753   858   861    1
   754   859   862    1
   755   859   863    1
   756   859   864    1
   757   865   866    1
   758   866   867    1
   759   866   868    1
   760   866   869    1
   761   867   870    1
   762   867   871    1
   763   867   872    1
   764   873   874    1
   765   874   875    1
   766   874   876    1
   767   874   877    1
   768   875   878    1
   769   875   879    1
   770   875   880    1
   771   881   882    1
   772   882   883    1
   773   882   884    1
   774   882   885    1
   775   883   886    1
   776   883   887    1
   777   883   888    1
   778   889   890    1
   779   890   891    1
   780   890   892    1
   781   890   893    1
   782   891   894    1
   783   891   895    1
   784   891   896    1
   785   897   898    1
   786   898   899    1
   787   898   900    1
   788   898   901    1
   789   899   902    1
   790   899   903    1
   791   899   904    1
   792   905   906    1
   793   906   907    1
   794   906   908    1
   795   906   909    1
   796   907   910    1
   797   907   911    1
   798   907   912    1
   799   913   914    1
   800   914   915    1
   801   914   916    1
   802   914   917    1
   803   915   918    1
   804   915   919    1
   805   915   920    1
   806   921   922    1
   807   922   923    1
   808   922   924    1
   809   922   925    1
   810   923   926    1
   811   923   927    1
   812   923   928    1
   813   929   930    1
   814   930   931    1
   815   930   932    1
   816   930   933    1
   817   931   934    1
   818   931   935    1
   819   931   936    1
   820   937   938    1
   821   938   939    1
   822   938   940    1
   823   938   941    1
   824   939   942    1
   825   939   943    1
   826   939   944    1
   827   945   946    1
   828   946   947    1
   829   946   948    1
   830   946   949    1
   831   947   950    1
   832   947   951    1
   833   947   952    1
   834   953   954    1
   835   954   955    1
   836   954   956    1
   837   954   957    1
   838   955   958    1
   839   955   959    1
   840   955   960    1
   841   961   962    1
   842   962   963    1
   843   962   964    1
   844   962   965    1
   845   963   966    1
   846   963   967    1
   847   963   968    1
   848   969   970    1
   849   970   971    1
   850   970   972    1
   851   970   973    1
   852   971   974    1
   853   971   975    1
   854   971   976    1
   855   977   978    1
   856   978   979    1
   857   978   980    1
   858   978   981    1
   859   979   982    1
   860   979   983    1
   861   979   984    1
   862   985   986    1
   863   986   987    1
   864   986   988    1
   865   986   989    1
   866   987   990    1
   867   987   991    1
   868   987   992    1
   869   993   994    1
   870   994   995    1
   871   994   996    1
   872   994   997    1
   873   995   998    1
   874   995   999    1
   875   995  1000    1
   876  1001  1002    1
   877  1002  1003    1
   878  1002  1004    1
   879  1002  1005    1
   880  1003  1006    1
   881  1003  1007    1
   882  1003  1008    1
   883  1009  1010    1
   884  1010  1011    1
   885  1010  1012    1
   886  1010  1013    1
   887  1011  1014    1
   888  1011  1015    1
   889  1011  1016    1
   890  1017  1018    1
   891  1018  1019    1
   892  1018  1020    1
   893  1018  1021    1
   894  1019  1022    1
   895  1019  1023    1
   896  1019  1024    1
   897  1025  1026    1
   898  1026  1027    1
   899  1026  1028    1
   900  1026  1029    1
   901  1027  1030    1
   902  1027  1031    1
   903  1027  1032    1
   904  1033  1034    1
   905  1034  1035    1
   906  1034  1036    1
   907  1034  1037    1
   908  1035  1038    1
   909  1035  1039    1
   910  1035  1040    1
   911  1041  1042    1
   912  1042  1043    1
   913  1042  1044    1
   914  1042  1045    1
   915  1043  1046    1
   916  1043  1047    1
   917  1043  1048    1
   918  1049  1050    1
   919  1050  1051    1
   920  1050  1052    1
   921  1050  1053    1
   922  1051  1054    1
   923  1051  1055    1
   924  1051  1056    1
   925  1057  1058    1
   926  1058  1059    1
   927  1058  1060    1
   928  1058  1061    1
   929  1059  1062    1
   930  1059  1063    1
   931  1059  1064    1
   932  1065  1066    1
   933  1066  1067    1
   934  1066  1068    1
   935  1066  1069    1
   936  1067  1070    1
   937  1067  1071    1
   938  1067  1072    1
   939  1073  1074    1
   940  1074  1075    1
   941  1074  1076    1
   942  1074  1077    1
   943  1075  1078    1
   944  1075  1079    1
   945  1075  1080    1
   946  1081  1082    1
   947  1082  1083    1
   948  1082  1084    1
   949  1082  1085    1
   950  1083  1086    1
   951  1083  1087    1
   952  1083  1088    1
   953  1089  1090    1
   954  1090  1091    1
   955  1090  1092    1
   956  1090  1093    1
   957  1091  1094    1
   958  1091  1095    1
   959  1091  1096    1
   960  1097  1098    1
   961  1098  1099    1
   962  1098  1100    1
   963  1098  1101    1
   964  1099  1102    1
   965  1099  1103    1
   966  1099  1104    1
   967  1105  1106    1
   968  1106  1107    1
   969  1106  1108    1
   970  1106  1109    1
   971  1107  1110    1
   972  1107  1111    1
   973  1107  1112    1
   974  1113  1114    1
   975  1114  1115    1
   976  1114  1116    1
   977  1114  1117    1
   978  1115  1118    1
   979  1115  1119    1
   980  1115  1120    1
   981  1121  1122    1
   982  1122  1123    1
   983  1122  1124    1
   984  1122  1125    1
   985  1123  1126    1
   986  1123  1127    1
   987  1123  1128    1
   988  1129  1130    1
   989  1130  1131    1
   990  1130  1132    1
   991  1130  1133    1
   992  1131  1134    1
   993  1131  1135    1
   994  1131  1136    1
   995  1137  1138    1
   996  1138  1139    1
   997  1138  1140    1
   998  1138  1141    1
   999  1139  1142    1
  1000  1139  1143    1
  1001  1139  1144    1
  1002  1145  1146    1
  1003  1146  1147    1
  1004  1146  1148    1
  1005  1146  1149    1
  1006  1147  1150    1
  1007  1147  1151    1
  1008  1147  1152    1
  1009  1153  1154    1
  1010  1154  1155    1
  1011  1154  1156    1
  1012  1154  1157    1
  1013  1155  1158    1
  1014  1155  1159    1
  1015  1155  1160    1
  1016  1161  1162    1
  1017  1162  1163    1
  1018  1162  1164    1
  1019  1162  1165    1
  1020  1163  1166    1
  1021  1163  1167    1
  1022  1163  1168    1
  1023  1169  1170    1
  1024  1170  1171    1
  1025  1170  1172    1
  1026  1170  1173    1
  1027  1171  1174    1
  1028  1171  1175    1
  1029  1171  1176    1
  1030  1177  1178    1
  1031  1178  1179    1
  1032  1178  1180    1
  1033  1178  1181    1
  1034  1179  1182    1
  1035  1179  1183    1
  1036  1179  1184    1
  1037  1185  1186    1
  1038  1186  1187    1
  1039  1186  1188    1
  1040  1186  1189    1
  1041  1187  1190    1
  1042  1187  1191    1
  1043  1187  1192    1
  1044  1193  1194    1
  1045  1194  1195    1
  1046  1194  1196    1
  1047  1194  1197    1
  1048  1195  1198    1
  1049  1195  1199    1
  1050  1195  1200    1
  1051  1201  1202    1
  1052  1202  1203    1
  1053  1202  1204    1
  1054  1202  1205    1
  1055  1203  1206    1
  1056  1203  1207    1
  1057  1203  1208    1
  1058  1209  1210    1
  1059  1210  1211    1
  1060  1210  1212    1
  1061  1210  1213    1
  1062  1211  1214    1
  1063  1211  1215    1
  1064  1211  1216    1
  1065  1217  1218    1
  1066  1218  1219    1
  1067  1218  1220    1
  1068  1218  1221    1
  1069  1219  1222    1
  1070  1219  1223    1
  1071  1219  1224    1
  1072  1225  1226    1
  1073  1226  1227    1
  1074  1226  1228    1
  1075  1226  1229    1
  1076  1227  1230    1
  1077  1227  1231    1
  1078  1227  1232    1
  1079  1233  1234    1
  1080  1234  1235    1
  1081  1234  1236    1
  1082  1234  1237    1
  1083  1235  1238    1
  1084  1235  1239    1
  1085  1235  1240    1
  1086  1241  1242    1
  1087  1242  1243    1
  1088  1242  1244    1
  1089  1242  1245    1
  1090  1243  1246    1
  1091  1243  1247    1
  1092  1243  1248    1
  1093  1249  1250    1
  1094  1250  1251    1
  1095  1250  1252    1
  1096  1250  1253    1
  1097  1251  1254    1
  1098  1251  1255    1
  1099  1251  1256    1
  1100  1257  1258    1
  1101  1258  1259    1
  1102  1258  1260    1
  1103  1258  1261    1
  1104  1259  1262    1
  1105  1259  1263    1
  1106  1259  1264    1
  1107  1265  1266    1
  1108  1266  1267    1
  1109  1266  1268    1
  1110  1266  1269    1
  1111  1267  1270    1
  1112  1267  1271    1
  1113  1267  1272    1
  1114  1273  1274    1
  1115  1274  1275    1
  1116  1274  1276    1
  1117  1274  1277    1
  1118  1275  1278    1
  1119  1275  1279    1
  1120  1275  1280    1
  1121  1281  1282    1
  1122  1282  1283    1
  1123  1282  1284    1
  1124  1282  1285    1
  1125  1283  1286    1
  1126  1283  1287    1
  1127  1283  1288    1
  1128  1289  1290    1
  1129  1290  1291    1
  1130  1290  1292    1
  1131  1290  1293    1
  1132  1291  1294    1
  1133  1291  1295    1
  1134  1291  1296    1
  1135  1297  1298    1
  1136  1298  1299    1
  1137  1298  1300    1
  1138  1298  1301    1
  1139  1299  1302    1
  1140  1299  1303    1
  1141  1299  1304    1
  1142  1305  1306    1
  1143  1306  1307    1
  1144  1306  1308    1
  1145  1306  1309    1
  1146  1307  1310    1
  1147  1307  1311    1
  1148  1307  1312    1
  1149  1313  1314    1
  1150  1314  1315    1
  1151  1314  1316    1
  1152  1314  1317    1
  1153  1315  1318    1
  1154  1315  1319    1
  1155  1315  1320    1
  1156  1321  1322    1
  1157  1322  1323    1
  1158  1322  1324    1
  1159  1322  1325    1
  1160  1323  1326    1
  1161  1323  1327    1
  1162  1323  1328    1
  1163  1329  1330    1
  1164  1330  1331    1
  1165  1330  1332    1
  1166  1330  1333    1
  1167  1331  1334    1
  1168  1331  1335    1
  1169  1331  1336    1
  1170  1337  1338    1
  1171  1338  1339    1
  1172  1338  1340    1
  1173  1338  1341    1
  1174  1339  1342    1
  1175  1339  1343    1
  1176  1339  1344    1
  1177  1345  1346    1
  1178  1346  1347    1
  1179  1346  1348    1
  1180  1346  1349    1
  1181  1347  1350    1
  1182  1347  1351    1
  1183  1347  1352    1
  1184  1353  1354    1
  1185  1354  1355    1
  1186  1354  1356    1
  1187  1354  1357    1
  1188  1355  1358    1
  1189  1355  1359    1
  1190  1355  1360    1
  1191  1361  1362    1
  1192  1362  1363    1
  1193  1362  1364    1
  1194  1362  1365    1
  1195  1363  1366    1
  1196  1363  1367    1
  1197  1363  1368    1
  1198  1369  1370    1
  1199  1370  1371    1
  1200  1370  1372    1
  1201  1370  1373    1
  1202  1371  1374    1
  1203  1371  1375    1
  1204  1371  1376    1
  1205  1377  1378    1
  1206  1378  1379    1
  1207  1378  1380    1
  1208  1378  1381    1
  1209  1379  1382    1
  1210  1379  1383    1
  1211  1379  1384    1
  1212  1385  1386    1
  1213  1386  1387    1
  1214  1386  1388    1
  1215  1386  1389    1
  1216  1387  1390    1
  1217  1387  1391    1
  1218  1387  1392    1
  1219  1393  1394    1
  1220  1394  1395    1
  1221  1394  1396    1
  1222  1394  1397    1
  1223  1395  1398    1
  1224  1395  1399    1
  1225  1395  1400    1
  1226  1401  1402    1
  1227  1402  1403    1
  1228  1402  1404    1
  1229  1402  1405    1
  1230  1403  1406    1
  1231  1403  1407    1
  1232  1403  1408    1
  1233  1409  1410    1
  1234  1410  1411    1
  1235  1410  1412    1
  1236  1410  1413    1
  1237  1411  1414    1
  1238  1411  1415    1
  1239  1411  1416    1
  1240  1417  1418    1
  1241  1418  1419    1
  1242  1418  1420    1
  1243  1418  1421    1
  1244  1419  1422    1
  1245  1419  1423    1
  1246  1419  1424    1
  1247  1425  1426    1
  1248  1426  1427    1
  1249  1426  1428    1
  1250  1426  1429    1
  1251  1427  1430    1
  1252  1427  1431    1
  1253  1427  1432    1
  1254  1433  1434    1
  1255  1434  1435    1
  1256  1434  1436    1
  1257  1434  1437    1
  1258  1435  1438    1
  1259  1435  1439    1
  1260  1435  1440    1
  1261  1441  1442    1
  1262  1442  1443    1
  1263  1442  1444    1
  1264  1442  1445    1
  1265  1443  1446    1
  1266  1443  1447    1
  1267  1443  1448    1
  1268  1449  1450    1
  1269  1450  1451    1
  1270  1450  1452    1
  1271  1450  1453    1
  1272  1451  1454    1
  1273  1451  1455    1
  1274  1451  1456    1
  1275  1457  1458    1
  1276  1458  1459    1
  1277  1458  1460    1
  1278  1458  1461    1
  1279  1459  1462    1
  1280  1459  1463    1
  1281  1459  1464    1
  1282  1465  1466    1
  1283  1466  1467    1
  1284  1466  1468    1
  1285  1466  1469    1
  1286  1467  1470    1
  1287  1467  1471    1
  1288  1467  1472    1
  1289  1473  1474    1
  1290  1474  1475    1
  1291  1474  1476    1
  1292  1474  1477    1
  1293  1475  1478    1
  1294  1475  1479    1
  1295  1475  1480    1
  1296  1481  1482    1
  1297  1482  1483    1
  1298  1482  1484    1
  1299  1482  1485    1
  1300  1483  1486    1
  1301  1483  1487    1
  1302  1483  1488    1
  1303  1489  1490    1
  1304  1490  1491    1
  1305  1490  1492    1
  1306  1490  1493    1
  1307  1491  1494    1
  1308  1491  1495    1
  1309  1491  1496    1
  1310  1497  1498    1
  1311  1498  1499    1
  1312  1498  1500    1
  1313  1498  1501    1
  1314  1499  1502    1
  1315  1499  1503    1
  1316  1499  1504    1
  1317  1505  1506    1
  1318  1506  1507    1
  1319  1506  1508    1
  1320  1506  1509    1
  1321  1507  1510    1
  1322  1507  1511    1
  1323  1507  1512    1
  1324  1513  1514    1
  1325  1514  1515    1
  1326  1514  1516    1
  1327  1514  1517    1
  1328  1515  1518    1
  1329  1515  1519    1
  1330  1515  1520    1
  1331  1521  1522    1
  1332  1522  1523    1
  1333  1522  1524    1
  1334  1522  1525    1
  1335  1523  1526    1
  1336  1523  1527    1
  1337  1523  1528    1
  1338  1529  1530    1
  1339  1530  1531    1
  1340  1530  1532    1
  1341  1530  1533    1
  1342  1531  1534    1
  1343  1531  1535    1
  1344  1531  1536    1
  1345  1537  1538    1
  1346  1538  1539    1
  1347  1538  1540    1
  1348  1538  1541    1
  1349  1539  1542    1
  1350  1539  1543    1
  1351  1539  1544    1
  1352  1545  1546    1
  1353  1546  1547    1
  1354  1546  1548    1
  1355  1546  1549    1
  1356  1547  1550    1
  1357  1547  1551    1
  1358  1547  1552    1
  1359  1553  1554    1
  1360  1554  1555    1
  1361  1554  1556    1
  1362  1554  1557    1
  1363  1555  1558    1
  1364  1555  1559    1
  1365  1555  1560    1
  1366  1561  1562    1
  1367  1562  1563    1
  1368  1562  1564    1
  1369  1562  1565    1
  1370  1563  1566    1
  1371  1563  1567    1
  1372  1563  1568    1
  1373  1569  1570    1
  1374  1570  1571    1
  1375  1570  1572    1
  1376  1570  1573    1
  1377  1571  1574    1
  1378  1571  1575    1
  1379  1571  1576    1
  1380  1577  1578    1
  1381  1578  1579    1
  1382  1578  1580    1
  1383  1578  1581    1
  1384  1579  1582    1
  1385  1579  1583    1
  1386  1579  1584    1
  1387  1585  1586    1
  1388  1586  1587    1
  1389  1586  1588    1
  1390  1586  1589    1
  1391  1587  1590    1
  1392  1587  1591    1
  1393  1587  1592    1
  1394  1593  1594    1
  1395  1594  1595    1
  1396  1594  1596    1
  1397  1594  1597    1
  1398  1595  1598    1
  1399  1595  1599    1
  1400  1595  1600    1
  1401  1601  1602    1
  1402  1602  1603    1
  1403  1602  1604    1
  1404  1602  1605    1
  1405  1603  1606    1
  1406  1603  1607    1
  1407  1603  1608    1
  1408  1609  1610    1
  1409  1610  1611    1
  1410  1610  1612    1
  1411  1610  1613    1
  1412  1611  1614    1
  1413  1611  1615    1
  1414  1611  1616    1
  1415  1617  1618    1
  1416  1618  1619    1
  1417  1618  1620    1
  1418  1618  1621    1
  1419  1619  1622    1
  1420  1619  1623    1
  1421  1619  1624    1
  1422  1625  1626    1
  1423  1626  1627    1
  1424  1626  1628    1
  1425  1626  1629    1
  1426  1627  1630    1
  1427  1627  1631    1
  1428  1627  1632    1
  1429  1633  1634    1
  1430  1634  1635    1
  1431  1634  1636    1
  1432  1634  1637    1
  1433  1635  1638    1
  1434  1635  1639    1
  1435  1635  1640    1
  1436  1641  1642    1
  1437  1642  1643    1
  1438  1642  1644    1
  1439  1642  1645    1
  1440  1643  1646    1
  1441  1643  1647    1
  1442  1643  1648    1
  1443  1649  1650    1
  1444  1650  1651    1
  1445  1650  1652    1
  1446  1650  1653    1
  1447  1651  1654    1
  1448  1651  1655    1
  1449  1651  1656    1
  1450  1657  1658    1
  1451  1658  1659    1
  1452  1658  1660    1
  1453  1658  1661    1
  1454  1659  1662    1
  1455  1659  1663    1
  1456  1659  1664    1
  1457  1665  1666    1
  1458  1666  1667    1
  1459  1666  1668    1
  1460  1666  1669    1
  1461  1667  1670    1
  1462  1667  1671    1
  1463  1667  1672    1
  1464  1673  1674    1
  1465  1674  1675    1
  1466  1674  1676    1
  1467  1674  1677    1
  1468  1675  1678    1
  1469  1675  1679    1
  1470  1675  1680    1
  1471  1681  1682    1
  1472  1682  1683    1
  1473  1682  1684    1
  1474  1682  1685    1
  1475  1683  1686    1
  1476  1683  1687    1
  1477  1683  1688    1
  1478  1689  1690    1
  1479  1690  1691    1
  1480  1690  1692    1
  1481  1690  1693    1
  1482  1691  1694    1
  1483  1691  1695    1
  1484  1691  1696    1
  1485  1697  1698    1
  1486  1698  1699    1
  1487  1698  1700    1
  1488  1698  1701    1
  1489  1699  1702    1
  1490  1699  1703    1
  1491  1699  1704    1
  1492  1705  1706    1
  1493  1706  1707    1
  1494  1706  1708    1
  1495  1706  1709    1
  1496  1707  1710    1
  1497  1707  1711    1
  1498  1707  1712    1
  1499  1713  1714    1
  1500  1714  1715    1
  1501  1714  1716    1
  1502  1714  1717    1
  1503  1715  1718    1
  1504  1715  1719    1
  1505  1715  1720    1
  1506  1721  1722    1
  1507  1722  1723    1
  1508  1722  1724    1
  1509  1722  1725    1
  1510  1723  1726    1
  1511  1723  1727    1
  1512  1723  1728    1
  1513  1729  1730    1
  1514  1730  1731    1
  1515  1730  1732    1
  1516  1730  1733    1
  1517  1731  1734    1
  1518  1731  1735    1
  1519  1731  1736    1
  1520  1737  1738    1
  1521  1738  1739    1
  1522  1738  1740    1
  1523  1738  1741    1
  1524  1739  1742    1
  1525  1739  1743    1
  1526  1739  1744    1
  1527  1745  1746    1
  1528  1746  1747    1
  1529  1746  1748    1
  1530  1746  1749    1
  1531  1747  1750    1
  1532  1747  1751    1
  1533  1747  1752    1
  1534  1753  1754    1
  1535  1754  1755    1
  1536  1754  1756    1
  1537  1754  1757    1
  1538  1755  1758    1
  1539  1755  1759    1
  1540  1755  1760    1
  1541  1761  1762    1
  1542  1762  1763    1
  1543  1762  1764    1
  1544  1762  1765    1
  1545  1763  1766    1
  1546  1763  1767    1
  1547  1763  1768    1
  1548  1769  1770    1
  1549  1770  1771    1
  1550  1770  1772    1
  1551  1770  1773    1
  1552  1771  1774    1
  1553  1771  1775    1
  1554  1771  1776    1
  1555  1777  1778    1
  1556  1778  1779    1
  1557  1778  1780    1
  1558  1778  1781    1
  1559  1779  1782    1
  1560  1779  1783    1
  1561  1779  1784    1
  1562  1785  1786    1
  1563  1786  1787    1
  1564  1786  1788    1
  1565  1786  1789    1
  1566  1787  1790    1
  1567  1787  1791    1
  1568  1787  1792    1
  1569  1793  1794    1
  1570  1794  1795    1
  1571  1794  1796    1
  1572  1794  1797    1
  1573  1795  1798    1
  1574  1795  1799    1
  1575  1795  1800    1
  1576  1801  1802    1
  1577  1802  1803    1
  1578  1802  1804    1
  1579  1802  1805    1
  1580  1803  1806    1
  1581  1803  1807    1
  1582  1803  1808    1
  1583  1809  1810    1
  1584  1810  1811    1
  1585  1810  1812    1
  1586  1810  1813    1
  1587  1811  1814    1
  1588  1811  1815    1
  1589  1811  1816    1
  1590  1817  1818    1
  1591  1818  1819    1
  1592  1818  1820    1
  1593  1818  1821    1
  1594  1819  1822    1
  1595  1819  1823    1
  1596  1819  1824    1
  1597  1825  1826    1
  1598  1826  1827    1
  1599  1826  1828    1
  1600  1826  1829    1
  1601  1827  1830    1
  1602  1827  1831    1
  1603  1827  1832    1
  1604  1833  1834    1
  1605  1834  1835    1
  1606  1834  1836    1
  1607  1834  1837    1
  1608  1835  1838    1
  1609  1835  1839    1
  1610  1835  1840    1
  1611  1841  1842    1
  1612  1842  1843    1
  1613  1842  1844    1
  1614  1842  1845    1
  1615  1843  1846    1
  1616  1843  1847    1
  1617  1843  1848    1
  1618  1849  1850    1
  1619  1850  1851    1
  1620  1850  1852    1
  1621  1850  1853    1
  1622  1851  1854    1
  1623  1851  1855    1
  1624  1851  1856    1
  1625  1857  1858    1
  1626  1858  1859    1
  1627  1858  1860    1
  1628  1858  1861    1
  1629  1859  1862    1
  1630  1859  1863    1
  1631  1859  1864    1
  1632  1865  1866    1
  1633  1866  1867    1
  1634  1866  1868    1
  1635  1866  1869    1
  1636  1867  1870    1
  1637  1867  1871    1
  1638  1867  1872    1
  1639  1873  1874    1
  1640  1874  1875    1
  1641  1874  1876    1
  1642  1874  1877    1
  1643  1875  1878    1
  1644  1875  1879    1
  1645  1875  1880    1
  1646  1881  1882    1
  1647  1882  1883    1
  1648  1882  1884    1
  1649  1882  1885    1
  1650  1883  1886    1
  1651  1883  1887    1
  1652  1883  1888    1
  1653  1889  1890    1
  1654  1890  1891    1
  1655  1890  1892    1
  1656  1890  1893    1
  1657  1891  1894    1
  1658  1891  1895    1
  1659  1891  1896    1
  1660  1897  1898    1
  1661  1898  1899    1
  1662  1898  1900    1
  1663  1898  1901    1
  1664  1899  1902    1
  1665  1899  1903    1
  1666  1899  1904    1
  1667  1905  1906    1
  1668  1906  1907    1
  1669  1906  1908    1
  1670  1906  1909    1
  1671  1907  1910    1
  1672  1907  1911    1
  1673  1907  1912    1
  1674  1913  1914    1
  1675  1914  1915    1
  1676  1914  1916    1
  1677  1914  1917    1
  1678  1915  1918    1
  1679  1915  1919    1
  1680  1915  1920    1
  1681  1921  1922    1
  1682  1922  1923    1
  1683  1922  1924    1
  1684  1922  1925    1
  1685  1923  1926    1
  1686  1923  1927    1
  1687  1923  1928    1
  1688  1929  1930    1
  1689  1930  1931    1
  1690  1930  1932    1
  1691  1930  1933    1
  1692  1931  1934    1
  1693  1931  1935    1
  1694  1931  1936    1
  1695  1937  1938    1
  1696  1938  1939    1
  1697  1938  1940    1
  1698  1938  1941    1
  1699  1939  1942    1
  1700  1939  1943    1
  1701  1939  1944    1
  1702  1945  1946    1
  1703  1946  1947    1
  1704  1946  1948    1
  1705  1946  1949    1
  1706  1947  1950    1
  1707  1947  1951    1
  1708  1947  1952    1
  1709  1953  1954    1
  1710  1954  1955    1
  1711  1954  1956    1
  1712  1954  1957    1
  1713  1955  1958    1
  1714  1955  1959    1
  1715  1955  1960    1
  1716  1961  1962    1
  1717  1962  1963    1
  1718  1962  1964    1
  1719  1962  1965    1
  1720  1963  1966    1
  1721  1963  1967    1
  1722  1963  1968    1
  1723  1969  1970    1
  1724  1970  1971    1
  1725  1970  1972    1
  1726  1970  1973    1
  1727  1971  1974    1
  1728  1971  1975    1
  1729  1971  1976    1
  1730  1977  1978    1
  1731  1978  1979    1
  1732  1978  1980    1
  1733  1978  1981    1
  1734  1979  1982    1
  1735  1979  1983    1
  1736  1979  1984    1
  1737  1985  1986    1
  1738  1986  1987    1
  1739  1986  1988    1
  1740  1986  1989    1
  1741  1987  1990    1
  1742  1987  1991    1
  1743  1987  1992    1
  1744  1993  1994    1
  1745  1994  1995    1
  1746  1994  1996    1
  1747  1994  1997    1
  1748  1995  1998    1
  1749  1995  1999    1
  1750  1995  2000    1
  1751  2001  2002    1
  1752  2002  2003    1
  1753  2002  2004    1
  1754  2002  2005    1
  1755  2003  2006    1
  1756  2003  2007    1
  1757  2003  2008    1
  1758  2009  2010    1
  1759  2010  2011    1
  1760  2010  2012    1
  1761  2010  2013    1
  1762  2011  2014    1
  1763  2011  2015    1
  1764  2011  2016    1
  1765  2017  2018    1
  1766  2018  2019    1
  1767  2018  2020    1
  1768  2018  2021    1
  1769  2019  2022    1
  1770  2019  2023    1
  1771  2019  2024    1
  1772  2025  2026    1
  1773  2026  2027    1
  1774  2026  2028    1
  1775  2026  2029    1
  1776  2027  2030    1
  1777  2027  2031    1
  1778  2027  2032    1
  1779  2033  2034    1
  1780  2034  2035    1
  1781  2034  2036    1
  1782  2034  2037    1
  1783  2035  2038    1
  1784  2035  2039    1
  1785  2035  2040    1
  1786  2041  2042    1
  1787  2042  2043    1
  1788  2042  2044    1
  1789  2042  2045    1
  1790  2043  2046    1
  1791  2043  2047    1
  1792  2043  2048    1
  1793  2049  2050    1
  1794  2050  2051    1
  1795  2050  2052    1
  1796  2050  2053    1
  1797  2051  2054    1
  1798  2051  2055    1
  1799  2051  2056    1
  1800  2057  2058    1
  1801  2058  2059    1
  1802  2058  2060    1
  1803  2058  2061    1
  1804  2059  2062    1
  1805  2059  2063    1
  1806  2059  2064    1
  1807  2065  2066    1
  1808  2066  2067    1
  1809  2066  2068    1
  1810  2066  2069    1
  1811  2067  2070    1
  1812  2067  2071    1
  1813  2067  2072    1
  1814  2073  2074    1
  1815  2074  2075    1
  1816  2074  2076    1
  1817  2074  2077    1
  1818  2075  2078    1
  1819  2075  2079    1
  1820  2075  2080    1
  1821  2081  2082    1
  1822  2082  2083    1
  1823  2082  2084    1
  1824  2082  2085    1
  1825  2083  2086    1
  1826  2083  2087    1
  1827  2083  2088    1
  1828  2089  2090    1
  1829  2090  2091    1
  1830  2090  2092    1
  1831  2090  2093    1
  1832  2091  2094    1
  1833  2091  2095    1
  1834  2091  2096    1
  1835  2097  2098    1
  1836  2098  2099    1
  1837  2098  2100    1
  1838  2098  2101    1
  1839  2099  2102    1
  1840  2099  2103    1
  1841  2099  2104    1
  1842  2105  2106    1
  1843  2106  2107    1
  1844  2106  2108    1
  1845  2106  2109    1
  1846  2107  2110    1
  1847  2107  2111    1
  1848  2107  2112    1
  1849  2113  2114    1
  1850  2114  2115    1
  1851  2114  2116    1
  1852  2114  2117    1
  1853  2115  2118    1
  1854  2115  2119    1
  1855  2115  2120    1
  1856  2121  2122    1
  1857  2122  2123    1
  1858  2122  2124    1
  1859  2122  2125    1
  1860  2123  2126    1
  1861  2123  2127    1
  1862  2123  2128    1
  1863  2129  2130    1
  1864  2130  2131    1
  1865  2130  2132    1
  1866  2130  2133    1
  1867  2131  2134    1
  1868  2131  2135    1
  1869  2131  2136    1
  1870  2137  2138    1
  1871  2138  2139    1
  1872  2138  2140    1
  1873  2138  2141    1
  1874  2139  2142    1
  1875  2139  2143    1
  1876  2139  2144    1
  1877  2145  2146    1
  1878  2146  2147    1
  1879  2146  2148    1
  1880  2146  2149    1
  1881  2147  2150    1
  1882  2147  2151    1
  1883  2147  2152    1
  1884  2153  2154    1
  1885  2154  2155    1
  1886  2154  2156    1
  1887  2154  2157    1
  1888  2155  2158    1
  1889  2155  2159    1
  1890  2155  2160    1
  1891  2161  2162    1
  1892  2162  2163    1
  1893  2162  2164    1
  1894  2162  2165    1
  1895  2163  2166    1
  1896  2163  2167    1
  1897  2163  2168    1
  1898  2169  2170    1
  1899  2170  2171    1
  1900  2170  2172    1
  1901  2170  2173    1
  1902  2171  2174    1
  1903  2171  2175    1
  1904  2171  2176    1
  1905  2177  2178    1
  1906  2178  2179    1
  1907  2178  2180    1
  1908  2178  2181    1
  1909  2179  2182    1
  1910  2179  2183    1
  1911  2179  2184    1
  1912  2185  2186    1
  1913  2186  2187    1
  1914  2186  2188    1
  1915  2186  2189    1
  1916  2187  2190    1
  1917  2187  2191    1
  1918  2187  2192    1
  1919  2193  2194    1
  1920  2194  2195    1
  1921  2194  2196    1
  1922  2194  2197    1
  1923  2195  2198    1
  1924  2195  2199    1
  1925  2195  2200    1
  1926  2201  2202    1
  1927  2202  2203    1
  1928  2202  2204    1
  1929  2202  2205    1
  1930  2203  2206    1
  1931  2203  2207    1
  1932  2203  2208    1
  1933  2209  2210    1
  1934  2210  2211    1
  1935  2210  2212    1
  1936  2210  2213    1
  1937  2211  2214    1
  1938  2211  2215    1
  1939  2211  2216    1
  1940  2217  2218    1
  1941  2218  2219    1
  1942  2218  2220    1
  1943  2218  2221    1
  1944  2219  2222    1
  1945  2219  2223    1
  1946  2219  2224    1
  1947  2225  2226    1
  1948  2226  2227    1
  1949  2226  2228    1
  1950  2226  2229    1
  1951  2227  2230    1
  1952  2227  2231    1
  1953  2227  2232    1
  1954  2233  2234    1
  1955  2234  2235    1
  1956  2234  2236    1
  1957  2234  2237    1
  1958  2235  2238    1
  1959  2235  2239    1
  1960  2235  2240    1
  1961  2241  2242    1
  1962  2242  2243    1
  1963  2242  2244    1
  1964  2242  2245    1
  1965  2243  2246    1
  1966  2243  2247    1
  1967  2243  2248    1
  1968  2249  2250    1
  1969  2250  2251    1
  1970  2250  2252    1
  1971  2250  2253    1
  1972  2251  2254    1
  1973  2251  2255    1
  1974  2251  2256    1
  1975  2257  2258    1
  1976  2258  2259    1
  1977  2258  2260    1
  1978  2258  2261    1
  1979  2259  2262    1
  1980  2259  2263    1
  1981  2259  2264    1
  1982  2265  2266    1
  1983  2266  2267    1
  1984  2266  2268    1
  1985  2266  2269    1
  1986  2267  2270    1
  1987  2267  2271    1
  1988  2267  2272    1
  1989  2273  2274    1
  1990  2274  2275    1
  1991  2274  2276    1
  1992  2274  2277    1
  1993  2275  2278    1
  1994  2275  2279    1
  1995  2275  2280    1
  1996  2281  2282    1
  1997  2282  2283    1
  1998  2282  2284    1
  1999  2282  2285    1
  2000  2283  2286    1
  2001  2283  2287    1
  2002  2283  2288    1
  2003  2289  2290    1
  2004  2290  2291    1
  2005  2290  2292    1
  2006  2290  2293    1
  2007  2291  2294    1
  2008  2291  2295    1
  2009  2291  2296    1
  2010  2297  2298    1
  2011  2298  2299    1
  2012  2298  2300    1
  2013  2298  2301    1
  2014  2299  2302    1
  2015  2299  2303    1
  2016  2299  2304    1
  2017  2305  2306    1
  2018  2306  2307    1
  2019  2306  2308    1
  2020  2306  2309    1
  2021  2307  2310    1
  2022  2307  2311    1
  2023  2307  2312    1
