@<TRIPOS>MOLECULE
*****
 616 539 0 0 0
SMALL
GASTEIGER

@<TRIPOS>ATOM
      1 CL          0.5455    0.7159   -0.1373 Cl      1  UNL1       -0.1257
      2 C          -0.1692   -0.1658    1.2296 C.3     1  UNL1        0.0198
      3 C          -0.7088    0.8020    2.2616 C.3     1  UNL1       -0.0517
      4 H          -0.9681   -0.8029    0.8397 H       1  UNL1        0.0427
      5 H           0.6067   -0.8029    1.6632 H       1  UNL1        0.0427
      6 H          -1.1476    0.2527    3.1007 H       1  UNL1        0.0241
      7 H           0.0856    1.4432    2.6574 H       1  UNL1        0.0241
      8 H          -1.4872    1.4432    1.8351 H       1  UNL1        0.0241
      9 CL          1.6225   -0.3497   13.5884 Cl      2  UNL2       -0.1257
     10 C           0.0800   -1.2314   13.5884 C.3     2  UNL2        0.0198
     11 C          -1.0845   -0.2636   13.5884 C.3     2  UNL2       -0.0517
     12 H           0.0554   -1.8685   12.6998 H       2  UNL2        0.0427
     13 H           0.0554   -1.8685   14.4769 H       2  UNL2        0.0427
     14 H          -2.0314   -0.8129   13.5884 H       2  UNL2        0.0241
     15 H          -1.0672    0.3776   14.4758 H       2  UNL2        0.0241
     16 H          -1.0672    0.3776   12.7010 H       2  UNL2        0.0241
     17 CL          1.6225    0.6334   19.8446 Cl      3  UNL3       -0.1257
     18 C           0.0800    0.2249   19.0633 C.3     3  UNL3        0.0198
     19 C          -1.0845    0.6733   19.9209 C.3     3  UNL3       -0.0517
     20 H           0.0554    0.7171   18.0869 H       3  UNL3        0.0427
     21 H           0.0554   -0.8577   18.9104 H       3  UNL3        0.0427
     22 H          -2.0314    0.4188   19.4341 H       3  UNL3        0.0241
     23 H          -1.0672    0.1841   20.9003 H       3  UNL3        0.0241
     24 H          -1.0672    1.7568   20.0779 H       3  UNL3        0.0241
     25 CL          1.6225    4.0798    1.3302 Cl      4  UNL4       -0.1257
     26 C           0.0800    3.6713    2.1115 C.3     4  UNL4        0.0198
     27 C          -1.0845    4.1197    1.2539 C.3     4  UNL4       -0.0517
     28 H           0.0554    2.5886    2.2643 H       4  UNL4        0.0427
     29 H           0.0554    4.1634    3.0878 H       4  UNL4        0.0427
     30 H          -2.0314    3.8652    1.7406 H       4  UNL4        0.0241
     31 H          -1.0672    5.2032    1.0969 H       4  UNL4        0.0241
     32 H          -1.0672    3.6305    0.2745 H       4  UNL4        0.0241
     33 CL         -1.7201    2.3067    2.8667 Cl      5  UNL5       -0.1257
     34 C          -0.8691    1.4250    4.1532 C.3     5  UNL5        0.0198
     35 C          -0.2267    2.3928    5.1245 C.3     5  UNL5       -0.0517
     36 H          -1.5967    0.7879    4.6640 H       5  UNL5        0.0427
     37 H          -0.1145    0.7879    3.6836 H       5  UNL5        0.0427
     38 H           0.2957    1.8435    5.9142 H       5  UNL5        0.0241
     39 H           0.5039    3.0340    4.6205 H       5  UNL5        0.0241
     40 H          -0.9764    3.0340    5.5996 H       5  UNL5        0.0241
     41 CL         -1.8251    3.5543    7.6469 Cl      6  UNL6       -0.1257
     42 C          -0.3457    2.5704    7.6469 C.3     6  UNL6        0.0198
     43 C          -0.6891    1.0957    7.6469 C.3     6  UNL6       -0.0517
     44 H           0.2349    2.8339    6.7583 H       6  UNL6        0.0427
     45 H           0.2349    2.8339    8.5354 H       6  UNL6        0.0427
     46 H           0.2263    0.4953    7.6469 H       6  UNL6        0.0241
     47 H          -1.2701    0.8239    8.5343 H       6  UNL6        0.0241
     48 H          -1.2701    0.8239    6.7595 H       6  UNL6        0.0241
     49 CL          0.2065    1.5683   10.6055 Cl      7  UNL7       -0.1257
     50 C           0.2731   -0.2071   10.6055 C.3     7  UNL7        0.0198
     51 C          -1.1241   -0.7906   10.6055 C.3     7  UNL7       -0.0517
     52 H           0.8263   -0.5241    9.7169 H       7  UNL7        0.0427
     53 H           0.8263   -0.5241   11.4940 H       7  UNL7        0.0427
     54 H          -1.0761   -1.8842   10.6055 H       7  UNL7        0.0241
     55 H          -1.6843   -0.4782   11.4929 H       7  UNL7        0.0241
     56 H          -1.6843   -0.4782    9.7181 H       7  UNL7        0.0241
     57 CL          1.5125    4.2704   12.7105 Cl      8  UNL8       -0.1257
     58 C          -0.0300    3.3887   12.7105 C.3     8  UNL8        0.0198
     59 C          -1.1945    4.3565   12.7105 C.3     8  UNL8       -0.0517
     60 H          -0.0546    2.7516   11.8219 H       8  UNL8        0.0427
     61 H          -0.0546    2.7516   13.5990 H       8  UNL8        0.0427
     62 H          -2.1414    3.8072   12.7105 H       8  UNL8        0.0241
     63 H          -1.1772    4.9977   13.5979 H       8  UNL8        0.0241
     64 H          -1.1772    4.9977   11.8231 H       8  UNL8        0.0241
     65 CL          1.5741    1.9577   14.9097 Cl      9  UNL9       -0.1257
     66 C           0.0316    1.5492   15.6910 C.3     9  UNL9        0.0198
     67 C          -1.1329    1.9976   14.8334 C.3     9  UNL9       -0.0517
     68 H           0.0070    0.4665   15.8438 H       9  UNL9        0.0427
     69 H           0.0070    2.0413   16.6673 H       9  UNL9        0.0427
     70 H          -2.0798    1.7431   15.3202 H       9  UNL9        0.0241
     71 H          -1.1156    3.0811   14.6764 H       9  UNL9        0.0241
     72 H          -1.1156    1.5084   13.8540 H       9  UNL9        0.0241
     73 CL          1.5741    3.8304   19.5298 Cl     10  UNL10      -0.1257
     74 C           0.0316    2.9487   19.5298 C.3    10  UNL10       0.0198
     75 C          -1.1329    3.9165   19.5298 C.3    10  UNL10      -0.0517
     76 H           0.0070    2.3116   18.6412 H      10  UNL10       0.0427
     77 H           0.0070    2.3116   20.4183 H      10  UNL10       0.0427
     78 H          -2.0798    3.3672   19.5298 H      10  UNL10       0.0241
     79 H          -1.1156    4.5577   20.4172 H      10  UNL10       0.0241
     80 H          -1.1156    4.5577   18.6424 H      10  UNL10       0.0241
     81 CL          1.5728    6.8634    1.9467 Cl     11  UNL11      -0.1257
     82 C           0.0303    7.2764    1.1677 C.3    11  UNL11       0.0198
     83 C          -1.1342    6.8231    2.0228 C.3    11  UNL11      -0.0517
     84 H           0.0057    8.3599    1.0209 H      11  UNL11       0.0427
     85 H           0.0057    6.7897    0.1886 H      11  UNL11       0.0427
     86 H          -2.0811    7.0804    1.5374 H      11  UNL11       0.0241
     87 H          -1.1169    5.7387    2.1737 H      11  UNL11       0.0241
     88 H          -1.1169    7.3069    3.0049 H      11  UNL11       0.0241
     89 CL          1.1163    5.0359    3.3258 Cl     12  UNL12      -0.1257
     90 C           0.2253    5.1756    4.8566 C.3    12  UNL12       0.0198
     91 C          -1.2641    5.0449    4.6175 C.3    12  UNL12      -0.0517
     92 H           0.5814    4.3887    5.5274 H      12  UNL12       0.0427
     93 H           0.4639    6.1470    5.2985 H      12  UNL12       0.0427
     94 H          -1.8071    5.1318    5.5641 H      12  UNL12       0.0241
     95 H          -1.6285    5.8301    3.9470 H      12  UNL12       0.0241
     96 H          -1.5111    4.0740    4.1756 H      12  UNL12       0.0241
     97 CL          1.5741    5.5313    7.6227 Cl     13  UNL13      -0.1257
     98 C           0.0316    4.6496    7.6227 C.3    13  UNL13       0.0198
     99 C          -1.1329    5.6174    7.6227 C.3    13  UNL13      -0.0517
    100 H           0.0070    4.0125    6.7341 H      13  UNL13       0.0427
    101 H           0.0070    4.0125    8.5112 H      13  UNL13       0.0427
    102 H          -2.0798    5.0681    7.6227 H      13  UNL13       0.0241
    103 H          -1.1156    6.2586    8.5101 H      13  UNL13       0.0241
    104 H          -1.1156    6.2586    6.7353 H      13  UNL13       0.0241
    105 CL         -1.1547    6.5834   11.9702 Cl     14  UNL14      -0.1257
    106 C          -0.3997    5.8753   10.5262 C.3    14  UNL14       0.0198
    107 C          -0.4360    4.3631   10.5957 C.3    14  UNL14      -0.0517
    108 H          -0.9438    6.2368    9.6491 H      14  UNL14       0.0427
    109 H           0.6310    6.2368   10.4726 H      14  UNL14       0.0427
    110 H           0.0305    3.9332    9.7036 H      14  UNL14       0.0241
    111 H           0.1075    3.9933   11.4713 H      14  UNL14       0.0241
    112 H          -1.4652    3.9933   10.6489 H      14  UNL14       0.0241
    113 CL          1.6104    7.1650   13.6368 Cl     15  UNL15      -0.1257
    114 C           0.0679    6.2833   13.6368 C.3    15  UNL15       0.0198
    115 C          -1.0966    7.2511   13.6368 C.3    15  UNL15      -0.0517
    116 H           0.0433    5.6462   12.7482 H      15  UNL15       0.0427
    117 H           0.0433    5.6462   14.5253 H      15  UNL15       0.0427
    118 H          -2.0435    6.7018   13.6368 H      15  UNL15       0.0241
    119 H          -1.0793    7.8923   14.5242 H      15  UNL15       0.0241
    120 H          -1.0793    7.8923   12.7494 H      15  UNL15       0.0241
    121 CL          1.2347    6.3227   16.5712 Cl     16  UNL16      -0.1257
    122 C           0.2351    4.8539   16.5712 C.3    16  UNL16       0.0198
    123 C          -1.2359    5.2129   16.5712 C.3    16  UNL16      -0.0517
    124 H           0.4924    4.2705   15.6826 H      16  UNL16       0.0427
    125 H           0.4924    4.2705   17.4597 H      16  UNL16       0.0427
    126 H          -1.8460    4.3040   16.5712 H      16  UNL16       0.0241
    127 H          -1.5015    5.7967   17.4586 H      16  UNL16       0.0241
    128 H          -1.5015    5.7967   15.6838 H      16  UNL16       0.0241
    129 CL          1.5741    7.1650   19.5661 Cl     17  UNL17      -0.1257
    130 C           0.0316    6.2833   19.5661 C.3    17  UNL17       0.0198
    131 C          -1.1329    7.2511   19.5661 C.3    17  UNL17      -0.0517
    132 H           0.0070    5.6462   18.6775 H      17  UNL17       0.0427
    133 H           0.0070    5.6462   20.4546 H      17  UNL17       0.0427
    134 H          -2.0798    6.7018   19.5661 H      17  UNL17       0.0241
    135 H          -1.1156    7.8923   20.4535 H      17  UNL17       0.0241
    136 H          -1.1156    7.8923   18.6787 H      17  UNL17       0.0241
    137 CL          1.6225   10.5290    1.3423 Cl     18  UNL18      -0.1257
    138 C           0.0800   10.1204    2.1236 C.3    18  UNL18       0.0198
    139 C          -1.0845   10.5689    1.2660 C.3    18  UNL18      -0.0517
    140 H           0.0554    9.0378    2.2764 H      18  UNL18       0.0427
    141 H           0.0554   10.6126    3.0999 H      18  UNL18       0.0427
    142 H          -2.0314   10.3144    1.7527 H      18  UNL18       0.0241
    143 H          -1.0672   11.6524    1.1090 H      18  UNL18       0.0241
    144 H          -1.0672   10.0796    0.2866 H      18  UNL18       0.0241
    145 CL          1.1550    7.2184    4.2445 Cl     19  UNL19      -0.1257
    146 C          -0.2853    7.9049    5.0260 C.3    19  UNL19       0.0198
    147 C          -0.7104    9.1801    4.3290 C.3    19  UNL19      -0.0517
    148 H          -1.0811    7.1559    4.9846 H      19  UNL19       0.0427
    149 H          -0.0407    8.0984    6.0742 H      19  UNL19       0.0427
    150 H          -1.5978    9.5978    4.8151 H      19  UNL19       0.0241
    151 H           0.0813    9.9356    4.3669 H      19  UNL19       0.0241
    152 H          -0.9578    8.9943    3.2787 H      19  UNL19       0.0241
    153 CL          1.6467    8.8659   10.5813 Cl     20  UNL20      -0.1257
    154 C           0.1042    7.9842   10.5813 C.3    20  UNL20       0.0198
    155 C          -1.0603    8.9520   10.5813 C.3    20  UNL20      -0.0517
    156 H           0.0796    7.3471    9.6927 H      20  UNL20       0.0427
    157 H           0.0796    7.3471   11.4698 H      20  UNL20       0.0427
    158 H          -2.0072    8.4027   10.5813 H      20  UNL20       0.0241
    159 H          -1.0430    9.5932   11.4687 H      20  UNL20       0.0241
    160 H          -1.0430    9.5932    9.6939 H      20  UNL20       0.0241
    161 CL          1.5741   10.4996   13.6005 Cl     21  UNL21      -0.1257
    162 C           0.0316    9.6179   13.6005 C.3    21  UNL21       0.0198
    163 C          -1.1329   10.5857   13.6005 C.3    21  UNL21      -0.0517
    164 H           0.0070    8.9808   12.7119 H      21  UNL21       0.0427
    165 H           0.0070    8.9808   14.4890 H      21  UNL21       0.0427
    166 H          -2.0798   10.0364   13.6005 H      21  UNL21       0.0241
    167 H          -1.1156   11.2269   14.4879 H      21  UNL21       0.0241
    168 H          -1.1156   11.2269   12.7131 H      21  UNL21       0.0241
    169 CL          1.5741    8.8659   16.5591 Cl     22  UNL22      -0.1257
    170 C           0.0316    7.9842   16.5591 C.3    22  UNL22       0.0198
    171 C          -1.1329    8.9520   16.5591 C.3    22  UNL22      -0.0517
    172 H           0.0070    7.3471   15.6705 H      22  UNL22       0.0427
    173 H           0.0070    7.3471   17.4476 H      22  UNL22       0.0427
    174 H          -2.0798    8.4027   16.5591 H      22  UNL22       0.0241
    175 H          -1.1156    9.5932   17.4465 H      22  UNL22       0.0241
    176 H          -1.1156    9.5932   15.6717 H      22  UNL22       0.0241
    177 CL          1.5741   10.4996   19.5661 Cl     23  UNL23      -0.1257
    178 C           0.0316    9.6179   19.5661 C.3    23  UNL23       0.0198
    179 C          -1.1329   10.5857   19.5661 C.3    23  UNL23      -0.0517
    180 H           0.0070    8.9808   18.6775 H      23  UNL23       0.0427
    181 H           0.0070    8.9808   20.4546 H      23  UNL23       0.0427
    182 H          -2.0798   10.0364   19.5661 H      23  UNL23       0.0241
    183 H          -1.1156   11.2269   20.4535 H      23  UNL23       0.0241
    184 H          -1.1156   11.2269   18.6787 H      23  UNL23       0.0241
    185 CL          1.5741   14.0542    1.6329 Cl     24  UNL24      -0.1257
    186 C           0.0316   13.1725    1.6329 C.3    24  UNL24       0.0198
    187 C          -1.1329   14.1403    1.6329 C.3    24  UNL24      -0.0517
    188 H           0.0070   12.5354    0.7443 H      24  UNL24       0.0427
    189 H           0.0070   12.5354    2.5214 H      24  UNL24       0.0427
    190 H          -2.0798   13.5910    1.6329 H      24  UNL24       0.0241
    191 H          -1.1156   14.7815    2.5203 H      24  UNL24       0.0241
    192 H          -1.1156   14.7815    0.7455 H      24  UNL24       0.0241
    193 CL         -2.3760   12.4448    5.6065 Cl     25  UNL25      -0.1257
    194 C          -1.3398   11.9448    4.2525 C.3    25  UNL25       0.0198
    195 C           0.1131   11.9182    4.6778 C.3    25  UNL25      -0.0517
    196 H          -1.6669   10.9539    3.9252 H      25  UNL25       0.0427
    197 H          -1.4914   12.6522    3.4324 H      25  UNL25       0.0427
    198 H           0.7459   11.6095    3.8396 H      25  UNL25       0.0241
    199 H           0.4484   12.9074    5.0064 H      25  UNL25       0.0241
    200 H           0.2731   11.2112    5.4986 H      25  UNL25       0.0241
    201 CL         -1.2389    9.8060    7.7085 Cl     26  UNL26      -0.1257
    202 C          -1.0222   11.5694    7.7085 C.3    26  UNL26       0.0198
    203 C           0.4501   11.9232    7.7085 C.3    26  UNL26      -0.0517
    204 H          -1.5179   11.9704    6.8199 H      26  UNL26       0.0427
    205 H          -1.5179   11.9704    8.5970 H      26  UNL26       0.0427
    206 H           0.5767   13.0105    7.7085 H      26  UNL26       0.0241
    207 H           0.9534   11.5256    8.5959 H      26  UNL26       0.0241
    208 H           0.9534   11.5256    6.8211 H      26  UNL26       0.0241
    209 CL          1.6346   12.2005   10.6176 Cl     27  UNL27      -0.1257
    210 C           0.0921   11.3188   10.6176 C.3    27  UNL27       0.0198
    211 C          -1.0724   12.2866   10.6176 C.3    27  UNL27      -0.0517
    212 H           0.0675   10.6817    9.7290 H      27  UNL27       0.0427
    213 H           0.0675   10.6817   11.5061 H      27  UNL27       0.0427
    214 H          -2.0193   11.7373   10.6176 H      27  UNL27       0.0241
    215 H          -1.0551   12.9278   11.5050 H      27  UNL27       0.0241
    216 H          -1.0551   12.9278    9.7302 H      27  UNL27       0.0241
    217 CL          1.5741   13.8342   13.6005 Cl     28  UNL28      -0.1257
    218 C           0.0316   12.9525   13.6005 C.3    28  UNL28       0.0198
    219 C          -1.1329   13.9203   13.6005 C.3    28  UNL28      -0.0517
    220 H           0.0070   12.3154   12.7119 H      28  UNL28       0.0427
    221 H           0.0070   12.3154   14.4890 H      28  UNL28       0.0427
    222 H          -2.0798   13.3710   13.6005 H      28  UNL28       0.0241
    223 H          -1.1156   14.5615   14.4879 H      28  UNL28       0.0241
    224 H          -1.1156   14.5615   12.7131 H      28  UNL28       0.0241
    225 CL          1.6346   12.2005   16.5833 Cl     29  UNL29      -0.1257
    226 C           0.0921   11.3188   16.5833 C.3    29  UNL29       0.0198
    227 C          -1.0724   12.2866   16.5833 C.3    29  UNL29      -0.0517
    228 H           0.0675   10.6817   15.6947 H      29  UNL29       0.0427
    229 H           0.0675   10.6817   17.4718 H      29  UNL29       0.0427
    230 H          -2.0193   11.7373   16.5833 H      29  UNL29       0.0241
    231 H          -1.0551   12.9278   17.4707 H      29  UNL29       0.0241
    232 H          -1.0551   12.9278   15.6959 H      29  UNL29       0.0241
    233 CL          1.5741   13.8342   19.5661 Cl     30  UNL30      -0.1257
    234 C           0.0316   12.9525   19.5661 C.3    30  UNL30       0.0198
    235 C          -1.1329   13.9203   19.5661 C.3    30  UNL30      -0.0517
    236 H           0.0070   12.3154   18.6775 H      30  UNL30       0.0427
    237 H           0.0070   12.3154   20.4546 H      30  UNL30       0.0427
    238 H          -2.0798   13.3710   19.5661 H      30  UNL30       0.0241
    239 H          -1.1156   14.5615   20.4535 H      30  UNL30       0.0241
    240 H          -1.1156   14.5615   18.6787 H      30  UNL30       0.0241
    241 CL          6.5005    0.3053   10.3391 Cl     31  UNL31      -0.1257
    242 C           4.9580   -0.1033   11.1205 C.3    31  UNL31       0.0198
    243 C           3.7935    0.3452   10.2628 C.3    31  UNL31      -0.0517
    244 H           4.9334   -1.1860   11.2733 H      31  UNL31       0.0427
    245 H           4.9334    0.3888   12.0968 H      31  UNL31       0.0427
    246 H           2.8466    0.0906   10.7496 H      31  UNL31       0.0241
    247 H           3.8108    1.4287   10.1058 H      31  UNL31       0.0241
    248 H           3.8108   -0.1441    9.2834 H      31  UNL31       0.0241
    249 CL          6.4521    0.1245   16.8124 Cl     32  UNL32      -0.1257
    250 C           4.9096    0.7105   16.1536 C.3    32  UNL32       0.0198
    251 C           3.7451    0.0673   16.8767 C.3    32  UNL32      -0.0517
    252 H           4.8850    1.7979   16.2682 H      32  UNL32       0.0427
    253 H           4.8850    0.4701   15.0870 H      32  UNL32       0.0427
    254 H           2.7982    0.4324   16.4663 H      32  UNL32       0.0241
    255 H           3.7624   -1.0219   16.7660 H      32  UNL32       0.0241
    256 H           3.7624    0.3042   17.9456 H      32  UNL32       0.0241
    257 CL          6.5126    2.1967    1.6813 Cl     33  UNL33      -0.1257
    258 C           4.9701    1.3150    1.6813 C.3    33  UNL33       0.0198
    259 C           3.8056    2.2828    1.6813 C.3    33  UNL33      -0.0517
    260 H           4.9455    0.6779    0.7927 H      33  UNL33       0.0427
    261 H           4.9455    0.6779    2.5698 H      33  UNL33       0.0427
    262 H           2.8587    1.7335    1.6813 H      33  UNL33       0.0241
    263 H           3.8229    2.9240    2.5687 H      33  UNL33       0.0241
    264 H           3.8229    2.9240    0.7939 H      33  UNL33       0.0241
    265 CL          4.8184    1.5563    4.3311 Cl     34  UNL34      -0.1257
    266 C           3.2759    2.0840    5.0375 C.3    34  UNL34       0.0198
    267 C           2.1114    1.5048    4.2621 C.3    34  UNL34      -0.0517
    268 H           3.2513    1.7534    6.0797 H      34  UNL34       0.0427
    269 H           3.2513    3.1771    5.0161 H      34  UNL34       0.0427
    270 H           1.1645    1.8336    4.7022 H      34  UNL34       0.0241
    271 H           2.1287    1.8320    3.2173 H      34  UNL34       0.0241
    272 H           2.1287    0.4101    4.2795 H      34  UNL34       0.0241
    273 CL          4.5984    1.5563    7.3865 Cl     35  UNL35      -0.1257
    274 C           3.0559    2.0840    8.0929 C.3    35  UNL35       0.0198
    275 C           1.8914    1.5048    7.3175 C.3    35  UNL35      -0.0517
    276 H           3.0313    1.7534    9.1351 H      35  UNL35       0.0427
    277 H           3.0313    3.1771    8.0716 H      35  UNL35       0.0427
    278 H           0.9445    1.8336    7.7576 H      35  UNL35       0.0241
    279 H           1.9087    1.8320    6.2727 H      35  UNL35       0.0241
    280 H           1.9087    0.4101    7.3349 H      35  UNL35       0.0241
    281 CL          6.4763    3.8598   10.8961 Cl     36  UNL36      -0.1257
    282 C           4.9338    3.4513   10.1148 C.3    36  UNL36       0.0198
    283 C           3.7693    3.8997   10.9724 C.3    36  UNL36      -0.0517
    284 H           4.9092    3.9435    9.1385 H      36  UNL36       0.0427
    285 H           4.9092    2.3687    9.9619 H      36  UNL36       0.0427
    286 H           2.8224    3.6452   10.4856 H      36  UNL36       0.0241
    287 H           3.7866    3.4104   11.9518 H      36  UNL36       0.0241
    288 H           3.7866    4.9832   11.1294 H      36  UNL36       0.0241
    289 CL          6.4521    3.4191   13.6368 Cl     37  UNL37      -0.1257
    290 C           4.9096    2.5374   13.6368 C.3    37  UNL37       0.0198
    291 C           3.7451    3.5052   13.6368 C.3    37  UNL37      -0.0517
    292 H           4.8850    1.9003   12.7482 H      37  UNL37       0.0427
    293 H           4.8850    1.9003   14.5253 H      37  UNL37       0.0427
    294 H           2.7982    2.9559   13.6368 H      37  UNL37       0.0241
    295 H           3.7624    4.1464   14.5242 H      37  UNL37       0.0241
    296 H           3.7624    4.1464   12.7494 H      37  UNL37       0.0241
    297 CL          6.4642    4.4904   16.6196 Cl     38  UNL38      -0.1257
    298 C           4.9217    3.6087   16.6196 C.3    38  UNL38       0.0198
    299 C           3.7572    4.5765   16.6196 C.3    38  UNL38      -0.0517
    300 H           4.8971    2.9716   15.7310 H      38  UNL38       0.0427
    301 H           4.8971    2.9716   17.5081 H      38  UNL38       0.0427
    302 H           2.8103    4.0272   16.6196 H      38  UNL38       0.0241
    303 H           3.7745    5.2177   17.5070 H      38  UNL38       0.0241
    304 H           3.7745    5.2177   15.7322 H      38  UNL38       0.0241
    305 CL          6.5247    2.1967   19.5298 Cl     39  UNL39      -0.1257
    306 C           4.9822    1.3150   19.5298 C.3    39  UNL39       0.0198
    307 C           3.8177    2.2828   19.5298 C.3    39  UNL39      -0.0517
    308 H           4.9576    0.6779   18.6412 H      39  UNL39       0.0427
    309 H           4.9576    0.6779   20.4183 H      39  UNL39       0.0427
    310 H           2.8708    1.7335   19.5298 H      39  UNL39       0.0241
    311 H           3.8350    2.9240   20.4172 H      39  UNL39       0.0241
    312 H           3.8350    2.9240   18.6424 H      39  UNL39       0.0241
    313 CL          6.5247    5.5313    1.6329 Cl     40  UNL40      -0.1257
    314 C           4.9822    4.6496    1.6329 C.3    40  UNL40       0.0198
    315 C           3.8177    5.6174    1.6329 C.3    40  UNL40      -0.0517
    316 H           4.9576    4.0125    0.7443 H      40  UNL40       0.0427
    317 H           4.9576    4.0125    2.5214 H      40  UNL40       0.0427
    318 H           2.8708    5.0681    1.6329 H      40  UNL40       0.0241
    319 H           3.8350    6.2586    2.5203 H      40  UNL40       0.0241
    320 H           3.8350    6.2586    0.7455 H      40  UNL40       0.0241
    321 CL          6.4521    7.3850    4.6157 Cl     41  UNL41      -0.1257
    322 C           4.9096    6.5033    4.6157 C.3    41  UNL41       0.0198
    323 C           3.7451    7.4711    4.6157 C.3    41  UNL41      -0.0517
    324 H           4.8850    5.8662    3.7271 H      41  UNL41       0.0427
    325 H           4.8850    5.8662    5.5042 H      41  UNL41       0.0427
    326 H           2.7982    6.9218    4.6157 H      41  UNL41       0.0241
    327 H           3.7624    8.1123    5.5031 H      41  UNL41       0.0241
    328 H           3.7624    8.1123    3.7283 H      41  UNL41       0.0241
    329 CL          6.5005    7.1944    7.9375 Cl     42  UNL42      -0.1257
    330 C           4.9580    6.7858    7.1562 C.3    42  UNL42       0.0198
    331 C           3.7935    7.2343    8.0138 C.3    42  UNL42      -0.0517
    332 H           4.9334    7.2781    6.1798 H      42  UNL42       0.0427
    333 H           4.9334    5.7033    7.0033 H      42  UNL42       0.0427
    334 H           2.8466    6.9798    7.5270 H      42  UNL42       0.0241
    335 H           3.8108    6.7450    8.9932 H      42  UNL42       0.0241
    336 H           3.8108    8.3178    8.1708 H      42  UNL42       0.0241
    337 CL          6.4521    7.1650   10.6539 Cl     43  UNL43      -0.1257
    338 C           4.9096    6.2833   10.6539 C.3    43  UNL43       0.0198
    339 C           3.7451    7.2511   10.6539 C.3    43  UNL43      -0.0517
    340 H           4.8850    5.6462    9.7653 H      43  UNL43       0.0427
    341 H           4.8850    5.6462   11.5424 H      43  UNL43       0.0427
    342 H           2.7982    6.7018   10.6539 H      43  UNL43       0.0241
    343 H           3.7624    7.8923   11.5413 H      43  UNL43       0.0241
    344 H           3.7624    7.8923    9.7665 H      43  UNL43       0.0241
    345 CL          6.5247    5.5313   13.5642 Cl     44  UNL44      -0.1257
    346 C           4.9822    4.6496   13.5642 C.3    44  UNL44       0.0198
    347 C           3.8177    5.6174   13.5642 C.3    44  UNL44      -0.0517
    348 H           4.9576    4.0125   12.6756 H      44  UNL44       0.0427
    349 H           4.9576    4.0125   14.4527 H      44  UNL44       0.0427
    350 H           2.8708    5.0681   13.5642 H      44  UNL44       0.0241
    351 H           3.8350    6.2586   14.4516 H      44  UNL44       0.0241
    352 H           3.8350    6.2586   12.6768 H      44  UNL44       0.0241
    353 CL          6.5005    7.3850   16.5712 Cl     45  UNL45      -0.1257
    354 C           4.9580    6.5033   16.5712 C.3    45  UNL45       0.0198
    355 C           3.7935    7.4711   16.5712 C.3    45  UNL45      -0.0517
    356 H           4.9334    5.8662   15.6826 H      45  UNL45       0.0427
    357 H           4.9334    5.8662   17.4597 H      45  UNL45       0.0427
    358 H           2.8466    6.9218   16.5712 H      45  UNL45       0.0241
    359 H           3.8108    8.1123   17.4586 H      45  UNL45       0.0241
    360 H           3.8108    8.1123   15.6838 H      45  UNL45       0.0241
    361 CL          6.5247    5.5313   19.5661 Cl     46  UNL46      -0.1257
    362 C           4.9822    4.6496   19.5661 C.3    46  UNL46       0.0198
    363 C           3.8177    5.6174   19.5661 C.3    46  UNL46      -0.0517
    364 H           4.9576    4.0125   18.6775 H      46  UNL46       0.0427
    365 H           4.9576    4.0125   20.4546 H      46  UNL46       0.0427
    366 H           2.8708    5.0681   19.5661 H      46  UNL46       0.0241
    367 H           3.8350    6.2586   20.4535 H      46  UNL46       0.0241
    368 H           3.8350    6.2586   18.6787 H      46  UNL46       0.0241
    369 CL          6.4521    8.8659    1.7055 Cl     47  UNL47      -0.1257
    370 C           4.9096    7.9842    1.7055 C.3    47  UNL47       0.0198
    371 C           3.7451    8.9520    1.7055 C.3    47  UNL47      -0.0517
    372 H           4.8850    7.3471    0.8169 H      47  UNL47       0.0427
    373 H           4.8850    7.3471    2.5940 H      47  UNL47       0.0427
    374 H           2.7982    8.4027    1.7055 H      47  UNL47       0.0241
    375 H           3.7624    9.5932    2.5929 H      47  UNL47       0.0241
    376 H           3.7624    9.5932    0.8181 H      47  UNL47       0.0241
    377 CL          6.4521   10.9396    4.6157 Cl     48  UNL48      -0.1257
    378 C           4.9096   10.0579    4.6157 C.3    48  UNL48       0.0198
    379 C           3.7451   11.0257    4.6157 C.3    48  UNL48      -0.0517
    380 H           4.8850    9.4208    3.7271 H      48  UNL48       0.0427
    381 H           4.8850    9.4208    5.5042 H      48  UNL48       0.0427
    382 H           2.7982   10.4764    4.6157 H      48  UNL48       0.0241
    383 H           3.7624   11.6669    5.5031 H      48  UNL48       0.0241
    384 H           3.7624   11.6669    3.7283 H      48  UNL48       0.0241
    385 CL          6.4521   10.7490    7.9617 Cl     49  UNL49      -0.1257
    386 C           4.9096   10.3404    7.1804 C.3    49  UNL49       0.0198
    387 C           3.7451   10.7889    8.0380 C.3    49  UNL49      -0.0517
    388 H           4.8850   10.8326    6.2040 H      49  UNL49       0.0427
    389 H           4.8850    9.2578    7.0275 H      49  UNL49       0.0427
    390 H           2.7982   10.5343    7.5512 H      49  UNL49       0.0241
    391 H           3.7624   10.2996    9.0174 H      49  UNL49       0.0241
    392 H           3.7624   11.8724    8.1950 H      49  UNL49       0.0241
    393 CL          6.4763   10.8296   10.6539 Cl     50  UNL50      -0.1257
    394 C           4.9338    9.9479   10.6539 C.3    50  UNL50       0.0198
    395 C           3.7693   10.9157   10.6539 C.3    50  UNL50      -0.0517
    396 H           4.9092    9.3108    9.7653 H      50  UNL50       0.0427
    397 H           4.9092    9.3108   11.5424 H      50  UNL50       0.0427
    398 H           2.8224   10.3664   10.6539 H      50  UNL50       0.0241
    399 H           3.7866   11.5569   11.5413 H      50  UNL50       0.0241
    400 H           3.7866   11.5569    9.7665 H      50  UNL50       0.0241
    401 CL          6.4521    8.7933   13.6005 Cl     51  UNL51      -0.1257
    402 C           4.9096    7.9116   13.6005 C.3    51  UNL51       0.0198
    403 C           3.7451    8.8794   13.6005 C.3    51  UNL51      -0.0517
    404 H           4.8850    7.2745   12.7119 H      51  UNL51       0.0427
    405 H           4.8850    7.2745   14.4890 H      51  UNL51       0.0427
    406 H           2.7982    8.3301   13.6005 H      51  UNL51       0.0241
    407 H           3.7624    9.5206   14.4879 H      51  UNL51       0.0241
    408 H           3.7624    9.5206   12.7131 H      51  UNL51       0.0241
    409 CL          6.4642   10.6096   16.5833 Cl     52  UNL52      -0.1257
    410 C           4.9217    9.7279   16.5833 C.3    52  UNL52       0.0198
    411 C           3.7572   10.6957   16.5833 C.3    52  UNL52      -0.0517
    412 H           4.8971    9.0908   15.6947 H      52  UNL52       0.0427
    413 H           4.8971    9.0908   17.4718 H      52  UNL52       0.0427
    414 H           2.8103   10.1464   16.5833 H      52  UNL52       0.0241
    415 H           3.7745   11.3369   17.4707 H      52  UNL52       0.0241
    416 H           3.7745   11.3369   15.6959 H      52  UNL52       0.0241
    417 CL          6.5247    8.8659   19.5661 Cl     53  UNL53      -0.1257
    418 C           4.9822    7.9842   19.5661 C.3    53  UNL53       0.0198
    419 C           3.8177    8.9520   19.5661 C.3    53  UNL53      -0.0517
    420 H           4.9576    7.3471   18.6775 H      53  UNL53       0.0427
    421 H           4.9576    7.3471   20.4546 H      53  UNL53       0.0427
    422 H           2.8708    8.4027   19.5661 H      53  UNL53       0.0241
    423 H           3.8350    9.5932   20.4535 H      53  UNL53       0.0241
    424 H           3.8350    9.5932   18.6787 H      53  UNL53       0.0241
    425 CL          6.4763   12.2005    1.7055 Cl     54  UNL54      -0.1257
    426 C           4.9338   11.3188    1.7055 C.3    54  UNL54       0.0198
    427 C           3.7693   12.2866    1.7055 C.3    54  UNL54      -0.0517
    428 H           4.9092   10.6817    0.8169 H      54  UNL54       0.0427
    429 H           4.9092   10.6817    2.5940 H      54  UNL54       0.0427
    430 H           2.8224   11.7373    1.7055 H      54  UNL54       0.0241
    431 H           3.7866   12.9278    2.5929 H      54  UNL54       0.0241
    432 H           3.7866   12.9278    0.8181 H      54  UNL54       0.0241
    433 CL          6.4763   14.2742    4.6157 Cl     55  UNL55      -0.1257
    434 C           4.9338   13.3925    4.6157 C.3    55  UNL55       0.0198
    435 C           3.7693   14.3603    4.6157 C.3    55  UNL55      -0.0517
    436 H           4.9092   12.7554    3.7271 H      55  UNL55       0.0427
    437 H           4.9092   12.7554    5.5042 H      55  UNL55       0.0427
    438 H           2.8224   13.8110    4.6157 H      55  UNL55       0.0241
    439 H           3.7866   15.0015    5.5031 H      55  UNL55       0.0241
    440 H           3.7866   15.0015    3.7283 H      55  UNL55       0.0241
    441 CL          6.5126   14.0836    7.3079 Cl     56  UNL56      -0.1257
    442 C           4.9701   13.6750    8.0892 C.3    56  UNL56       0.0198
    443 C           3.8056   14.1235    7.2316 C.3    56  UNL56      -0.0517
    444 H           4.9455   12.5923    8.2421 H      56  UNL56       0.0427
    445 H           4.9455   14.1671    9.0655 H      56  UNL56       0.0427
    446 H           2.8587   13.8689    7.7184 H      56  UNL56       0.0241
    447 H           3.8229   15.2070    7.0746 H      56  UNL56       0.0241
    448 H           3.8229   13.6342    6.2522 H      56  UNL56       0.0241
    449 CL          6.4521   14.0542   10.6539 Cl     57  UNL57      -0.1257
    450 C           4.9096   13.1725   10.6539 C.3    57  UNL57       0.0198
    451 C           3.7451   14.1403   10.6539 C.3    57  UNL57      -0.0517
    452 H           4.8850   12.5354    9.7653 H      57  UNL57       0.0427
    453 H           4.8850   12.5354   11.5424 H      57  UNL57       0.0427
    454 H           2.7982   13.5910   10.6539 H      57  UNL57       0.0241
    455 H           3.7624   14.7815   11.5413 H      57  UNL57       0.0241
    456 H           3.7624   14.7815    9.7665 H      57  UNL57       0.0241
    457 CL          6.4763   12.2005   13.5642 Cl     58  UNL58      -0.1257
    458 C           4.9338   11.3188   13.5642 C.3    58  UNL58       0.0198
    459 C           3.7693   12.2866   13.5642 C.3    58  UNL58      -0.0517
    460 H           4.9092   10.6817   12.6756 H      58  UNL58       0.0427
    461 H           4.9092   10.6817   14.4527 H      58  UNL58       0.0427
    462 H           2.8224   11.7373   13.5642 H      58  UNL58       0.0241
    463 H           3.7866   12.9278   14.4516 H      58  UNL58       0.0241
    464 H           3.7866   12.9278   12.6768 H      58  UNL58       0.0241
    465 CL          6.4521   14.0542   16.5833 Cl     59  UNL59      -0.1257
    466 C           4.9096   13.1725   16.5833 C.3    59  UNL59       0.0198
    467 C           3.7451   14.1403   16.5833 C.3    59  UNL59      -0.0517
    468 H           4.8850   12.5354   15.6947 H      59  UNL59       0.0427
    469 H           4.8850   12.5354   17.4718 H      59  UNL59       0.0427
    470 H           2.7982   13.5910   16.5833 H      59  UNL59       0.0241
    471 H           3.7624   14.7815   17.4707 H      59  UNL59       0.0241
    472 H           3.7624   14.7815   15.6959 H      59  UNL59       0.0241
    473 CL          6.5247   12.2005   19.5661 Cl     60  UNL60      -0.1257
    474 C           4.9822   11.3188   19.5661 C.3    60  UNL60       0.0198
    475 C           3.8177   12.2866   19.5661 C.3    60  UNL60      -0.0517
    476 H           4.9576   10.6817   18.6775 H      60  UNL60       0.0427
    477 H           4.9576   10.6817   20.4546 H      60  UNL60       0.0427
    478 H           2.8708   11.7373   19.5661 H      60  UNL60       0.0241
    479 H           3.8350   12.9278   20.4535 H      60  UNL60       0.0241
    480 H           3.8350   12.9278   18.6787 H      60  UNL60       0.0241
    481 CL         11.3300    0.1840    1.3287 Cl     61  UNL61      -0.1257
    482 C           9.7875    0.0764    2.2038 C.3    61  UNL61       0.0198
    483 C           8.6230    0.1946    1.2432 C.3    61  UNL61      -0.0517
    484 H           9.7629   -0.8834    2.7276 H      61  UNL61       0.0427
    485 H           9.7629    0.8804    2.9446 H      61  UNL61       0.0427
    486 H           7.6761    0.1275    1.7884 H      61  UNL61       0.0241
    487 H           8.6403    1.1536    0.7152 H      61  UNL61       0.0241
    488 H           8.6403   -0.6079    0.4985 H      61  UNL61       0.0241
    489 CL         11.3300   -0.0940    4.5536 Cl     62  UNL62      -0.1257
    490 C           9.7875    0.7614    4.7677 C.3    62  UNL62       0.0198
    491 C           8.6230   -0.1775    4.5327 C.3    62  UNL62      -0.0517
    492 H           9.7629    1.1637    5.7843 H      62  UNL62       0.0427
    493 H           9.7629    1.5951    4.0604 H      62  UNL62       0.0427
    494 H           7.6761    0.3554    4.6661 H      62  UNL62       0.0241
    495 H           8.6403   -0.5841    3.5162 H      62  UNL62       0.0241
    496 H           8.6403   -1.0149    5.2379 H      62  UNL62       0.0241
    497 CL         11.3300    0.3441   13.6247 Cl     63  UNL63      -0.1257
    498 C           9.7875   -0.5376   13.6247 C.3    63  UNL63       0.0198
    499 C           8.6230    0.4302   13.6247 C.3    63  UNL63      -0.0517
    500 H           9.7629   -1.1747   12.7361 H      63  UNL63       0.0427
    501 H           9.7629   -1.1747   14.5132 H      63  UNL63       0.0427
    502 H           7.6761   -0.1191   13.6247 H      63  UNL63       0.0241
    503 H           8.6403    1.0714   14.5121 H      63  UNL63       0.0241
    504 H           8.6403    1.0714   12.7373 H      63  UNL63       0.0241
    505 CL         11.3300    3.6786    1.7055 Cl     64  UNL64      -0.1257
    506 C           9.7875    2.7969    1.7055 C.3    64  UNL64       0.0198
    507 C           8.6230    3.7647    1.7055 C.3    64  UNL64      -0.0517
    508 H           9.7629    2.1598    0.8169 H      64  UNL64       0.0427
    509 H           9.7629    2.1598    2.5940 H      64  UNL64       0.0427
    510 H           7.6761    3.2154    1.7055 H      64  UNL64       0.0241
    511 H           8.6403    4.4059    2.5929 H      64  UNL64       0.0241
    512 H           8.6403    4.4059    0.8181 H      64  UNL64       0.0241
    513 CL         11.3300    3.8598    4.3735 Cl     65  UNL65      -0.1257
    514 C           9.7875    3.4513    5.1548 C.3    65  UNL65       0.0198
    515 C           8.6230    3.8997    4.2972 C.3    65  UNL65      -0.0517
    516 H           9.7629    2.3686    5.3076 H      65  UNL65       0.0427
    517 H           9.7629    3.9434    6.1311 H      65  UNL65       0.0427
    518 H           7.6761    3.6452    4.7840 H      65  UNL65       0.0241
    519 H           8.6403    4.9832    4.1402 H      65  UNL65       0.0241
    520 H           8.6403    3.4105    3.3178 H      65  UNL65       0.0241
    521 CL         11.3542    2.6398    7.2837 Cl     66  UNL66      -0.1257
    522 C           9.8117    2.2313    8.0650 C.3    66  UNL66       0.0198
    523 C           8.6472    2.6797    7.2074 C.3    66  UNL66      -0.0517
    524 H           9.7871    1.1486    8.2179 H      66  UNL66       0.0427
    525 H           9.7871    2.7234    9.0413 H      66  UNL66       0.0427
    526 H           7.7003    2.4252    7.6942 H      66  UNL66       0.0241
    527 H           8.6645    3.7632    7.0504 H      66  UNL66       0.0241
    528 H           8.6645    2.1905    6.2280 H      66  UNL66       0.0241
    529 CL         11.3300    2.1725   10.6539 Cl     67  UNL67      -0.1257
    530 C           9.7875    1.2908   10.6539 C.3    67  UNL67       0.0198
    531 C           8.6230    2.2586   10.6539 C.3    67  UNL67      -0.0517
    532 H           9.7629    0.6537    9.7653 H      67  UNL67       0.0427
    533 H           9.7629    0.6537   11.5424 H      67  UNL67       0.0427
    534 H           7.6761    1.7093   10.6539 H      67  UNL67       0.0241
    535 H           8.6403    2.8998   11.5413 H      67  UNL67       0.0241
    536 H           8.6403    2.8998    9.7665 H      67  UNL67       0.0241
    537 CL         11.3300    3.8304   19.5782 Cl     68  UNL68      -0.1257
    538 C           9.7875    2.9487   19.5782 C.3    68  UNL68       0.0198
    539 C           8.6230    3.9165   19.5782 C.3    68  UNL68      -0.0517
    540 H           9.7629    2.3116   18.6896 H      68  UNL68       0.0427
    541 H           9.7629    2.3116   20.4667 H      68  UNL68       0.0427
    542 H           7.6761    3.3672   19.5782 H      68  UNL68       0.0241
    543 H           8.6403    4.5577   20.4656 H      68  UNL68       0.0241
    544 H           8.6403    4.5577   18.6908 H      68  UNL68       0.0241
    545 CL         11.2576    5.6547   -0.4395 Cl     69  UNL69      -0.1257
    546 C           9.7151    4.7730   -0.4395 C.3    69  UNL69       0.0198
    547 C           8.5506    5.7408   -0.4395 C.3    69  UNL69      -0.0517
    548 H           9.6905    4.1359   -1.3281 H      69  UNL69       0.0427
    549 H           9.6905    4.1359    0.4490 H      69  UNL69       0.0427
    550 H           7.6037    5.1915   -0.4395 H      69  UNL69       0.0241
    551 H           8.5679    6.3820    0.4479 H      69  UNL69       0.0241
    552 H           8.5679    6.3820   -1.3269 H      69  UNL69       0.0241
    553 CL         11.3300    6.3722    2.9820 Cl     70  UNL70      -0.1257
    554 C           9.7875    5.4905    2.9820 C.3    70  UNL70       0.0198
    555 C           8.6230    6.4583    2.9820 C.3    70  UNL70      -0.0517
    556 H           9.7629    4.8534    2.0934 H      70  UNL70       0.0427
    557 H           9.7629    4.8534    3.8705 H      70  UNL70       0.0427
    558 H           7.6761    5.9090    2.9820 H      70  UNL70       0.0241
    559 H           8.6403    7.0995    3.8694 H      70  UNL70       0.0241
    560 H           8.6403    7.0995    2.0946 H      70  UNL70       0.0241
    561 CL         11.3300    7.1650    5.9648 Cl     71  UNL71      -0.1257
    562 C           9.7875    6.2833    5.9648 C.3    71  UNL71       0.0198
    563 C           8.6230    7.2511    5.9648 C.3    71  UNL71      -0.0517
    564 H           9.7629    5.6462    5.0762 H      71  UNL71       0.0427
    565 H           9.7629    5.6462    6.8533 H      71  UNL71       0.0427
    566 H           7.6761    6.7018    5.9648 H      71  UNL71       0.0241
    567 H           8.6403    7.8923    6.8522 H      71  UNL71       0.0241
    568 H           8.6403    7.8923    5.0774 H      71  UNL71       0.0241
    569 CL         11.3421    5.5313    8.9476 Cl     72  UNL72      -0.1257
    570 C           9.7996    4.6496    8.9476 C.3    72  UNL72       0.0198
    571 C           8.6351    5.6174    8.9476 C.3    72  UNL72      -0.0517
    572 H           9.7750    4.0125    8.0590 H      72  UNL72       0.0427
    573 H           9.7750    4.0125    9.8361 H      72  UNL72       0.0427
    574 H           7.6882    5.0681    8.9476 H      72  UNL72       0.0241
    575 H           8.6524    6.2586    9.8350 H      72  UNL72       0.0241
    576 H           8.6524    6.2586    8.0602 H      72  UNL72       0.0241
    577 CL         11.3300    6.1650   11.9305 Cl     73  UNL73      -0.1257
    578 C           9.7875    5.2833   11.9305 C.3    73  UNL73       0.0198
    579 C           8.6230    6.2511   11.9305 C.3    73  UNL73      -0.0517
    580 H           9.7629    4.6462   11.0419 H      73  UNL73       0.0427
    581 H           9.7629    4.6462   12.8190 H      73  UNL73       0.0427
    582 H           7.6761    5.7018   11.9305 H      73  UNL73       0.0241
    583 H           8.6403    6.8923   12.8179 H      73  UNL73       0.0241
    584 H           8.6403    6.8923   11.0431 H      73  UNL73       0.0241
    585 CL         11.3300    6.1664   17.4561 Cl     74  UNL74      -0.1257
    586 C           9.7875    5.2847   17.4561 C.3    74  UNL74       0.0198
    587 C           8.6230    6.2525   17.4561 C.3    74  UNL74      -0.0517
    588 H           9.7629    4.6476   16.5675 H      74  UNL74       0.0427
    589 H           9.7629    4.6476   18.3446 H      74  UNL74       0.0427
    590 H           7.6761    5.7032   17.4561 H      74  UNL74       0.0241
    591 H           8.6403    6.8937   18.3435 H      74  UNL74       0.0241
    592 H           8.6403    6.8937   16.5687 H      74  UNL74       0.0241
    593 CL         11.3300    8.7933    1.6692 Cl     75  UNL75      -0.1257
    594 C           9.7875    7.9116    1.6692 C.3    75  UNL75       0.0198
    595 C           8.6230    8.8794    1.6692 C.3    75  UNL75      -0.0517
    596 H           9.7629    7.2745    0.7806 H      75  UNL75       0.0427
    597 H           9.7629    7.2745    2.5577 H      75  UNL75       0.0427
    598 H           7.6761    8.3301    1.6692 H      75  UNL75       0.0241
    599 H           8.6403    9.5206    2.5566 H      75  UNL75       0.0241
    600 H           8.6403    9.5206    0.7818 H      75  UNL75       0.0241
    601 CL         11.3300   10.4996   19.6024 Cl     76  UNL76      -0.1257
    602 C           9.7875    9.6179   19.6024 C.3    76  UNL76       0.0198
    603 C           8.6230   10.5857   19.6024 C.3    76  UNL76      -0.0517
    604 H           9.7629    8.9808   18.7138 H      76  UNL76       0.0427
    605 H           9.7629    8.9808   20.4909 H      76  UNL76       0.0427
    606 H           7.6761   10.0364   19.6024 H      76  UNL76       0.0241
    607 H           8.6403   11.2269   20.4898 H      76  UNL76       0.0241
    608 H           8.6403   11.2269   18.7150 H      76  UNL76       0.0241
    609 CL         11.3300   13.8635    2.8568 Cl     77  UNL77      -0.1257
    610 C           9.7875   13.4550    2.0754 C.3    77  UNL77       0.0198
    611 C           8.6230   13.9034    2.9331 C.3    77  UNL77      -0.0517
    612 H           9.7629   13.9472    1.0991 H      77  UNL77       0.0427
    613 H           9.7629   12.3724    1.9226 H      77  UNL77       0.0427
    614 H           7.6761   13.6489    2.4463 H      77  UNL77       0.0241
    615 H           8.6403   13.4142    3.9125 H      77  UNL77       0.0241
    616 H           8.6403   14.9869    3.0901 H      77  UNL77       0.0241
@<TRIPOS>BOND
     1     1     2    1
     2     2     3    1
     3     2     4    1
     4     2     5    1
     5     3     6    1
     6     3     7    1
     7     3     8    1
     8     9    10    1
     9    10    11    1
    10    10    12    1
    11    10    13    1
    12    11    14    1
    13    11    15    1
    14    11    16    1
    15    17    18    1
    16    18    19    1
    17    18    20    1
    18    18    21    1
    19    19    22    1
    20    19    23    1
    21    19    24    1
    22    25    26    1
    23    26    27    1
    24    26    28    1
    25    26    29    1
    26    27    30    1
    27    27    31    1
    28    27    32    1
    29    33    34    1
    30    34    35    1
    31    34    36    1
    32    34    37    1
    33    35    38    1
    34    35    39    1
    35    35    40    1
    36    41    42    1
    37    42    43    1
    38    42    44    1
    39    42    45    1
    40    43    46    1
    41    43    47    1
    42    43    48    1
    43    49    50    1
    44    50    51    1
    45    50    52    1
    46    50    53    1
    47    51    54    1
    48    51    55    1
    49    51    56    1
    50    57    58    1
    51    58    59    1
    52    58    60    1
    53    58    61    1
    54    59    62    1
    55    59    63    1
    56    59    64    1
    57    65    66    1
    58    66    67    1
    59    66    68    1
    60    66    69    1
    61    67    70    1
    62    67    71    1
    63    67    72    1
    64    73    74    1
    65    74    75    1
    66    74    76    1
    67    74    77    1
    68    75    78    1
    69    75    79    1
    70    75    80    1
    71    81    82    1
    72    82    83    1
    73    82    84    1
    74    82    85    1
    75    83    86    1
    76    83    87    1
    77    83    88    1
    78    89    90    1
    79    90    91    1
    80    90    92    1
    81    90    93    1
    82    91    94    1
    83    91    95    1
    84    91    96    1
    85    97    98    1
    86    98    99    1
    87    98   100    1
    88    98   101    1
    89    99   102    1
    90    99   103    1
    91    99   104    1
    92   105   106    1
    93   106   107    1
    94   106   108    1
    95   106   109    1
    96   107   110    1
    97   107   111    1
    98   107   112    1
    99   113   114    1
   100   114   115    1
   101   114   116    1
   102   114   117    1
   103   115   118    1
   104   115   119    1
   105   115   120    1
   106   121   122    1
   107   122   123    1
   108   122   124    1
   109   122   125    1
   110   123   126    1
   111   123   127    1
   112   123   128    1
   113   129   130    1
   114   130   131    1
   115   130   132    1
   116   130   133    1
   117   131   134    1
   118   131   135    1
   119   131   136    1
   120   137   138    1
   121   138   139    1
   122   138   140    1
   123   138   141    1
   124   139   142    1
   125   139   143    1
   126   139   144    1
   127   145   146    1
   128   146   147    1
   129   146   148    1
   130   146   149    1
   131   147   150    1
   132   147   151    1
   133   147   152    1
   134   153   154    1
   135   154   155    1
   136   154   156    1
   137   154   157    1
   138   155   158    1
   139   155   159    1
   140   155   160    1
   141   161   162    1
   142   162   163    1
   143   162   164    1
   144   162   165    1
   145   163   166    1
   146   163   167    1
   147   163   168    1
   148   169   170    1
   149   170   171    1
   150   170   172    1
   151   170   173    1
   152   171   174    1
   153   171   175    1
   154   171   176    1
   155   177   178    1
   156   178   179    1
   157   178   180    1
   158   178   181    1
   159   179   182    1
   160   179   183    1
   161   179   184    1
   162   185   186    1
   163   186   187    1
   164   186   188    1
   165   186   189    1
   166   187   190    1
   167   187   191    1
   168   187   192    1
   169   193   194    1
   170   194   195    1
   171   194   196    1
   172   194   197    1
   173   195   198    1
   174   195   199    1
   175   195   200    1
   176   201   202    1
   177   202   203    1
   178   202   204    1
   179   202   205    1
   180   203   206    1
   181   203   207    1
   182   203   208    1
   183   209   210    1
   184   210   211    1
   185   210   212    1
   186   210   213    1
   187   211   214    1
   188   211   215    1
   189   211   216    1
   190   217   218    1
   191   218   219    1
   192   218   220    1
   193   218   221    1
   194   219   222    1
   195   219   223    1
   196   219   224    1
   197   225   226    1
   198   226   227    1
   199   226   228    1
   200   226   229    1
   201   227   230    1
   202   227   231    1
   203   227   232    1
   204   233   234    1
   205   234   235    1
   206   234   236    1
   207   234   237    1
   208   235   238    1
   209   235   239    1
   210   235   240    1
   211   241   242    1
   212   242   243    1
   213   242   244    1
   214   242   245    1
   215   243   246    1
   216   243   247    1
   217   243   248    1
   218   249   250    1
   219   250   251    1
   220   250   252    1
   221   250   253    1
   222   251   254    1
   223   251   255    1
   224   251   256    1
   225   257   258    1
   226   258   259    1
   227   258   260    1
   228   258   261    1
   229   259   262    1
   230   259   263    1
   231   259   264    1
   232   265   266    1
   233   266   267    1
   234   266   268    1
   235   266   269    1
   236   267   270    1
   237   267   271    1
   238   267   272    1
   239   273   274    1
   240   274   275    1
   241   274   276    1
   242   274   277    1
   243   275   278    1
   244   275   279    1
   245   275   280    1
   246   281   282    1
   247   282   283    1
   248   282   284    1
   249   282   285    1
   250   283   286    1
   251   283   287    1
   252   283   288    1
   253   289   290    1
   254   290   291    1
   255   290   292    1
   256   290   293    1
   257   291   294    1
   258   291   295    1
   259   291   296    1
   260   297   298    1
   261   298   299    1
   262   298   300    1
   263   298   301    1
   264   299   302    1
   265   299   303    1
   266   299   304    1
   267   305   306    1
   268   306   307    1
   269   306   308    1
   270   306   309    1
   271   307   310    1
   272   307   311    1
   273   307   312    1
   274   313   314    1
   275   314   315    1
   276   314   316    1
   277   314   317    1
   278   315   318    1
   279   315   319    1
   280   315   320    1
   281   321   322    1
   282   322   323    1
   283   322   324    1
   284   322   325    1
   285   323   326    1
   286   323   327    1
   287   323   328    1
   288   329   330    1
   289   330   331    1
   290   330   332    1
   291   330   333    1
   292   331   334    1
   293   331   335    1
   294   331   336    1
   295   337   338    1
   296   338   339    1
   297   338   340    1
   298   338   341    1
   299   339   342    1
   300   339   343    1
   301   339   344    1
   302   345   346    1
   303   346   347    1
   304   346   348    1
   305   346   349    1
   306   347   350    1
   307   347   351    1
   308   347   352    1
   309   353   354    1
   310   354   355    1
   311   354   356    1
   312   354   357    1
   313   355   358    1
   314   355   359    1
   315   355   360    1
   316   361   362    1
   317   362   363    1
   318   362   364    1
   319   362   365    1
   320   363   366    1
   321   363   367    1
   322   363   368    1
   323   369   370    1
   324   370   371    1
   325   370   372    1
   326   370   373    1
   327   371   374    1
   328   371   375    1
   329   371   376    1
   330   377   378    1
   331   378   379    1
   332   378   380    1
   333   378   381    1
   334   379   382    1
   335   379   383    1
   336   379   384    1
   337   385   386    1
   338   386   387    1
   339   386   388    1
   340   386   389    1
   341   387   390    1
   342   387   391    1
   343   387   392    1
   344   393   394    1
   345   394   395    1
   346   394   396    1
   347   394   397    1
   348   395   398    1
   349   395   399    1
   350   395   400    1
   351   401   402    1
   352   402   403    1
   353   402   404    1
   354   402   405    1
   355   403   406    1
   356   403   407    1
   357   403   408    1
   358   409   410    1
   359   410   411    1
   360   410   412    1
   361   410   413    1
   362   411   414    1
   363   411   415    1
   364   411   416    1
   365   417   418    1
   366   418   419    1
   367   418   420    1
   368   418   421    1
   369   419   422    1
   370   419   423    1
   371   419   424    1
   372   425   426    1
   373   426   427    1
   374   426   428    1
   375   426   429    1
   376   427   430    1
   377   427   431    1
   378   427   432    1
   379   433   434    1
   380   434   435    1
   381   434   436    1
   382   434   437    1
   383   435   438    1
   384   435   439    1
   385   435   440    1
   386   441   442    1
   387   442   443    1
   388   442   444    1
   389   442   445    1
   390   443   446    1
   391   443   447    1
   392   443   448    1
   393   449   450    1
   394   450   451    1
   395   450   452    1
   396   450   453    1
   397   451   454    1
   398   451   455    1
   399   451   456    1
   400   457   458    1
   401   458   459    1
   402   458   460    1
   403   458   461    1
   404   459   462    1
   405   459   463    1
   406   459   464    1
   407   465   466    1
   408   466   467    1
   409   466   468    1
   410   466   469    1
   411   467   470    1
   412   467   471    1
   413   467   472    1
   414   473   474    1
   415   474   475    1
   416   474   476    1
   417   474   477    1
   418   475   478    1
   419   475   479    1
   420   475   480    1
   421   481   482    1
   422   482   483    1
   423   482   484    1
   424   482   485    1
   425   483   486    1
   426   483   487    1
   427   483   488    1
   428   489   490    1
   429   490   491    1
   430   490   492    1
   431   490   493    1
   432   491   494    1
   433   491   495    1
   434   491   496    1
   435   497   498    1
   436   498   499    1
   437   498   500    1
   438   498   501    1
   439   499   502    1
   440   499   503    1
   441   499   504    1
   442   505   506    1
   443   506   507    1
   444   506   508    1
   445   506   509    1
   446   507   510    1
   447   507   511    1
   448   507   512    1
   449   513   514    1
   450   514   515    1
   451   514   516    1
   452   514   517    1
   453   515   518    1
   454   515   519    1
   455   515   520    1
   456   521   522    1
   457   522   523    1
   458   522   524    1
   459   522   525    1
   460   523   526    1
   461   523   527    1
   462   523   528    1
   463   529   530    1
   464   530   531    1
   465   530   532    1
   466   530   533    1
   467   531   534    1
   468   531   535    1
   469   531   536    1
   470   537   538    1
   471   538   539    1
   472   538   540    1
   473   538   541    1
   474   539   542    1
   475   539   543    1
   476   539   544    1
   477   545   546    1
   478   546   547    1
   479   546   548    1
   480   546   549    1
   481   547   550    1
   482   547   551    1
   483   547   552    1
   484   553   554    1
   485   554   555    1
   486   554   556    1
   487   554   557    1
   488   555   558    1
   489   555   559    1
   490   555   560    1
   491   561   562    1
   492   562   563    1
   493   562   564    1
   494   562   565    1
   495   563   566    1
   496   563   567    1
   497   563   568    1
   498   569   570    1
   499   570   571    1
   500   570   572    1
   501   570   573    1
   502   571   574    1
   503   571   575    1
   504   571   576    1
   505   577   578    1
   506   578   579    1
   507   578   580    1
   508   578   581    1
   509   579   582    1
   510   579   583    1
   511   579   584    1
   512   585   586    1
   513   586   587    1
   514   586   588    1
   515   586   589    1
   516   587   590    1
   517   587   591    1
   518   587   592    1
   519   593   594    1
   520   594   595    1
   521   594   596    1
   522   594   597    1
   523   595   598    1
   524   595   599    1
   525   595   600    1
   526   601   602    1
   527   602   603    1
   528   602   604    1
   529   602   605    1
   530   603   606    1
   531   603   607    1
   532   603   608    1
   533   609   610    1
   534   610   611    1
   535   610   612    1
   536   610   613    1
   537   611   614    1
   538   611   615    1
   539   611   616    1
