@<TRIPOS>MOLECULE
*****
 56 49 0 0 0
SMALL
GASTEIGER

@<TRIPOS>ATOM
      1 CL          2.0130    8.5583    1.6683 Cl      1  UNL1       -0.1257
      2 C           0.4730    7.6723    1.6586 C.3     1  UNL1        0.0198
      3 C          -0.6942    8.6370    1.6536 C.3     1  UNL1       -0.0517
      4 H           0.4550    7.0364    0.7691 H       1  UNL1        0.0427
      5 H           0.4452    7.0340    2.5461 H       1  UNL1        0.0427
      6 H          -1.6396    8.0851    1.6476 H       1  UNL1        0.0241
      7 H          -0.6835    9.2770    2.5419 H       1  UNL1        0.0241
      8 H          -0.6738    9.2794    0.7672 H       1  UNL1        0.0241
      9 CL          2.8210    2.6893    0.2685 Cl      2  UNL2       -0.1257
     10 C           3.4537    2.7014    1.9287 C.3     2  UNL2        0.0198
     11 C           4.9385    2.4044    1.9330 C.3     2  UNL2       -0.0517
     12 H           3.2536    3.6867    2.3590 H       2  UNL2        0.0427
     13 H           2.9058    1.9500    2.5042 H       2  UNL2        0.0427
     14 H           5.3219    2.4133    2.9583 H       2  UNL2        0.0241
     15 H           5.1469    1.4187    1.5041 H       2  UNL2        0.0241
     16 H           5.4943    3.1531    1.3591 H       2  UNL2        0.0241
     17 CL          6.6303    9.4039    2.3424 Cl      3  UNL3       -0.1257
     18 C           7.5200    7.8733    2.1928 C.3     3  UNL3        0.0198
     19 C           6.6029    6.7719    1.7044 C.3     3  UNL3       -0.0517
     20 H           8.3457    8.0299    1.4930 H       3  UNL3        0.0427
     21 H           7.9346    7.6266    3.1742 H       3  UNL3        0.0427
     22 H           7.1569    5.8320    1.6144 H       3  UNL3        0.0241
     23 H           5.7736    6.6086    2.4004 H       3  UNL3        0.0241
     24 H           6.1841    7.0114    0.7214 H       3  UNL3        0.0241
     25 CL          9.9735    5.4002    1.6569 Cl      4  UNL4       -0.1257
     26 C          10.8123    3.8807    1.2771 C.3     4  UNL4        0.0198
     27 C          11.1167    3.1112    2.5451 C.3     4  UNL4       -0.0517
     28 H          10.1684    3.2965    0.6135 H       4  UNL4        0.0427
     29 H          11.7336    4.1282    0.7425 H       4  UNL4        0.0427
     30 H          11.6332    2.1765    2.3043 H       4  UNL4        0.0241
     31 H          11.7618    3.6895    3.2147 H       4  UNL4        0.0241
     32 H          10.1986    2.8589    3.0859 H       4  UNL4        0.0241
     33 CL         16.5854    7.7927    1.8309 Cl      5  UNL5       -0.1257
     34 C          15.0275    6.9389    1.8553 C.3     5  UNL5        0.0198
     35 C          13.8823    7.9203    1.7221 C.3     5  UNL5       -0.0517
     36 H          15.0226    6.2220    1.0294 H       5  UNL5        0.0427
     37 H          14.9593    6.3881    2.7976 H       5  UNL5        0.0427
     38 H          12.9258    7.3882    1.7378 H       5  UNL5        0.0241
     39 H          13.8800    8.6413    2.5461 H       5  UNL5        0.0241
     40 H          13.9433    8.4754    0.7802 H       5  UNL5        0.0241
     41 CL         20.0792    3.0282    1.8363 Cl      6  UNL6       -0.1257
     42 C          18.5117    3.0440    1.0000 C.3     6  UNL6        0.0198
     43 C          17.3815    3.2099    1.9940 C.3     6  UNL6       -0.0517
     44 H          18.5209    3.8684    0.2814 H       6  UNL6        0.0427
     45 H          18.4119    2.1029    0.4521 H       6  UNL6        0.0427
     46 H          16.4190    3.2189    1.4726 H       6  UNL6        0.0241
     47 H          17.3653    2.3875    2.7167 H       6  UNL6        0.0241
     48 H          17.4741    4.1508    2.5463 H       6  UNL6        0.0241
     49 CL         20.2968    9.4024    0.5730 Cl      7  UNL7       -0.1257
     50 C          20.3478    7.8771    1.4827 C.3     7  UNL7        0.0198
     51 C          21.5636    7.8375    2.3845 C.3     7  UNL7       -0.0517
     52 H          19.4273    7.8026    2.0685 H       7  UNL7        0.0427
     53 H          20.3719    7.0549    0.7621 H       7  UNL7        0.0427
     54 H          21.5891    6.8957    2.9419 H       7  UNL7        0.0241
     55 H          22.4897    7.9109    1.8050 H       7  UNL7        0.0241
     56 H          21.5463    8.6576    3.1097 H       7  UNL7        0.0241
@<TRIPOS>BOND
     1     1     2    1
     2     2     3    1
     3     2     4    1
     4     2     5    1
     5     3     6    1
     6     3     7    1
     7     3     8    1
     8     9    10    1
     9    10    11    1
    10    10    12    1
    11    10    13    1
    12    11    14    1
    13    11    15    1
    14    11    16    1
    15    17    18    1
    16    18    19    1
    17    18    20    1
    18    18    21    1
    19    19    22    1
    20    19    23    1
    21    19    24    1
    22    25    26    1
    23    26    27    1
    24    26    28    1
    25    26    29    1
    26    27    30    1
    27    27    31    1
    28    27    32    1
    29    33    34    1
    30    34    35    1
    31    34    36    1
    32    34    37    1
    33    35    38    1
    34    35    39    1
    35    35    40    1
    36    41    42    1
    37    42    43    1
    38    42    44    1
    39    42    45    1
    40    43    46    1
    41    43    47    1
    42    43    48    1
    43    49    50    1
    44    50    51    1
    45    50    52    1
    46    50    53    1
    47    51    54    1
    48    51    55    1
    49    51    56    1
