@<TRIPOS>MOLECULE
*****
 1848 1540 0 0 0
SMALL
GASTEIGER

@<TRIPOS>ATOM
      1 O          -2.1328   -1.1738   -0.1558 O.3     1  UNL1       -0.3982
      2 C          -0.7281   -1.0018   -0.1978 C.3     1  UNL1        0.0330
      3 H          -0.2394   -1.8811    0.2291 H       1  UNL1        0.0521
      4 H          -0.4525   -0.1082    0.3675 H       1  UNL1        0.0521
      5 H          -0.4156   -0.8830   -1.2379 H       1  UNL1        0.0521
      6 H          -2.3802   -1.2765    0.7790 H       1  UNL1        0.2090
      7 O           0.0191   -1.1343    3.7674 O.3     2  UNL2       -0.3982
      8 C          -1.3967   -1.1343    3.7674 C.3     2  UNL2        0.0330
      9 H          -1.7620   -0.1051    3.7280 H       2  UNL2        0.0521
     10 H          -1.7619   -1.6275    4.6714 H       2  UNL2        0.0521
     11 H          -1.7520   -1.6785    2.8892 H       2  UNL2        0.0521
     12 H           0.3048   -0.6447    4.5574 H       2  UNL2        0.2090
     13 O          -0.4640   -0.9579    6.8762 O.3     3  UNL3       -0.3982
     14 C          -1.1200   -0.9579    8.1309 C.3     3  UNL3        0.0330
     15 H          -1.0425   -1.9495    8.5837 H       3  UNL3        0.0521
     16 H          -2.1703   -0.6894    7.9938 H       3  UNL3        0.0521
     17 H          -0.6406   -0.2237    8.7825 H       3  UNL3        0.0521
     18 H          -0.9111   -1.6185    6.3201 H       3  UNL3        0.2090
     19 O          -0.0426   -1.2145    9.5471 O.3     4  UNL4       -0.3982
     20 C          -1.4483   -1.0501    9.5873 C.3     4  UNL4        0.0330
     21 H          -1.6904   -0.0833   10.0355 H       4  UNL4        0.0521
     22 H          -1.8938   -1.8574   10.1737 H       4  UNL4        0.0521
     23 H          -1.8393   -1.0848    8.5677 H       4  UNL4        0.0521
     24 H           0.2755   -1.1795   10.4653 H       4  UNL4        0.2090
     25 O           0.0312   -1.1101   13.4844 O.3     5  UNL5       -0.3982
     26 C          -1.3846   -1.1101   13.4844 C.3     5  UNL5        0.0330
     27 H          -1.7499   -0.0809   13.4451 H       5  UNL5        0.0521
     28 H          -1.7498   -1.6033   14.3885 H       5  UNL5        0.0521
     29 H          -1.7399   -1.6543   12.6062 H       5  UNL5        0.0521
     30 H           0.3169   -0.6205   14.2745 H       5  UNL5        0.2090
     31 O          -1.1951   -0.4936   16.4545 O.3     6  UNL6       -0.3982
     32 C          -1.1792   -0.8940   15.0966 C.3     6  UNL6        0.0330
     33 H          -2.0999   -1.4350   14.8644 H       6  UNL6        0.0521
     34 H          -0.3123   -1.5338   14.9146 H       6  UNL6        0.0521
     35 H          -1.1122   -0.0052   14.4648 H       6  UNL6        0.0521
     36 H          -1.2549   -1.3028   16.9903 H       6  UNL6        0.2090
     37 O          -1.5838    0.0048    0.0711 O.3     7  UNL7       -0.3982
     38 C          -0.7760    1.1675    0.0711 C.3     7  UNL7        0.0330
     39 H          -1.3819    2.0333    0.3497 H       7  UNL7        0.0521
     40 H          -0.3471    1.3142   -0.9231 H       7  UNL7        0.0521
     41 H           0.0297    1.0404    0.7980 H       7  UNL7        0.0521
     42 H          -2.2893    0.1471   -0.5828 H       7  UNL7        0.2090
     43 O          -0.5655    1.8229    1.5987 O.3     8  UNL8       -0.3982
     44 C          -1.2215    0.6042    1.8964 C.3     8  UNL8        0.0330
     45 H          -2.2851    0.7928    2.0624 H       8  UNL8        0.0521
     46 H          -0.7760    0.1581    2.7889 H       8  UNL8        0.0521
     47 H          -1.1023   -0.0790    1.0522 H       8  UNL8        0.0521
     48 H          -0.6884    2.4083    2.3653 H       8  UNL8        0.2090
     49 O          -0.6129   -0.0196    3.9879 O.3     9  UNL9       -0.3982
     50 C          -1.2689    1.1992    3.6901 C.3     9  UNL9        0.0330
     51 H          -0.5439    2.0168    3.7025 H       9  UNL9        0.0521
     52 H          -2.0529    1.3820    4.4291 H       9  UNL9        0.0521
     53 H          -1.7174    1.1278    2.6965 H       9  UNL9        0.0521
     54 H          -0.2252    0.0738    4.8747 H       9  UNL9        0.2090
     55 O          -1.7410    1.0027    6.7014 O.3    10  UNL10      -0.3982
     56 C          -0.9168    0.7911    5.5698 C.3    10  UNL10       0.0330
     57 H           0.1232    1.0022    5.8308 H      10  UNL10       0.0521
     58 H          -1.2393    1.4449    4.7558 H      10  UNL10       0.0521
     59 H          -1.0068   -0.2510    5.2546 H      10  UNL10       0.0521
     60 H          -1.6403    1.9353    6.9578 H      10  UNL10       0.2090
     61 O          -0.4137    0.5758    7.0153 O.3    11  UNL11      -0.3982
     62 C          -1.1980    0.8973    8.1494 C.3    11  UNL11       0.0330
     63 H          -2.2395    0.6240    7.9627 H      11  UNL11       0.0521
     64 H          -1.1221    1.9679    8.3543 H      11  UNL11       0.0521
     65 H          -0.8251    0.3366    9.0097 H      11  UNL11       0.0521
     66 H          -0.7680    1.0880    6.2685 H      11  UNL11       0.2090
     67 O          -0.5413    1.7987    9.3433 O.3    12  UNL12      -0.3982
     68 C          -1.1973    0.5800    9.6410 C.3    12  UNL12       0.0330
     69 H          -2.2609    0.7686    9.8070 H      12  UNL12       0.0521
     70 H          -0.7518    0.1339   10.5335 H      12  UNL12       0.0521
     71 H          -1.0781   -0.1032    8.7968 H      12  UNL12       0.0521
     72 H          -0.6642    2.3841   10.1099 H      12  UNL12       0.2090
     73 O          -1.9404    1.5219   15.8201 O.3    13  UNL13      -0.3982
     74 C          -0.7735    0.7240   15.7420 C.3    13  UNL13       0.0330
     75 H           0.0553    1.3252   15.3600 H      13  UNL13       0.0521
     76 H          -0.9561   -0.1263   15.0804 H      13  UNL13       0.0521
     77 H          -0.5255    0.3585   16.7413 H      13  UNL13       0.0521
     78 H          -2.1356    1.8315   14.9192 H      13  UNL13       0.2090
     79 O          -0.0293    2.9093   -0.1808 O.3    14  UNL14      -0.3982
     80 C          -1.4451    2.9093   -0.1808 C.3    14  UNL14       0.0330
     81 H          -1.8104    3.9185    0.0252 H      14  UNL14       0.0521
     82 H          -1.8103    2.2156    0.5804 H      14  UNL14       0.0521
     83 H          -1.8004    2.5890   -1.1630 H      14  UNL14       0.0521
     84 H           0.2564    3.1975    0.7029 H      14  UNL14       0.2090
     85 O          -0.0671    3.2227    1.5631 O.3    15  UNL15      -0.3982
     86 C          -1.2905    3.0645    2.2577 C.3    15  UNL15       0.0330
     87 H          -1.4155    2.0171    2.5436 H      15  UNL15       0.0521
     88 H          -2.1177    3.3795    1.6170 H      15  UNL15       0.0521
     89 H          -1.2718    3.6855    3.1564 H      15  UNL15       0.0521
     90 H          -0.1133    2.6603    0.7712 H      15  UNL15       0.2090
     91 O           0.0191    3.1374    3.9676 O.3    16  UNL16      -0.3982
     92 C          -1.3967    3.1374    3.9676 C.3    16  UNL16       0.0330
     93 H          -1.7620    2.1458    4.2462 H      16  UNL16       0.0521
     94 H          -1.7619    3.4059    2.9734 H      16  UNL16       0.0521
     95 H          -1.7520    3.8716    4.6945 H      16  UNL16       0.0521
     96 H           0.3048    2.4768    3.3137 H      16  UNL16       0.2090
     97 O          -0.0293    3.0648    5.9401 O.3    17  UNL17      -0.3982
     98 C          -1.4451    3.0648    5.9401 C.3    17  UNL17       0.0330
     99 H          -1.8104    2.0732    6.2186 H      17  UNL17       0.0521
    100 H          -1.8103    3.3333    4.9458 H      17  UNL17       0.0521
    101 H          -1.8004    3.7990    6.6669 H      17  UNL17       0.0521
    102 H           0.2564    2.4042    5.2862 H      17  UNL17       0.2090
    103 O           0.0070    2.9456    7.6485 O.3    18  UNL18      -0.3982
    104 C          -1.4088    2.9456    7.6485 C.3    18  UNL18       0.0330
    105 H          -1.7741    3.9548    7.8545 H      18  UNL18       0.0521
    106 H          -1.7740    2.2519    8.4097 H      18  UNL18       0.0521
    107 H          -1.7641    2.6253    6.6663 H      18  UNL18       0.0521
    108 H           0.2927    3.2338    8.5322 H      18  UNL18       0.2090
    109 O          -0.6872    2.1462   11.1222 O.3    19  UNL19      -0.3982
    110 C          -1.3433    3.1670   11.8515 C.3    19  UNL19       0.0330
    111 H          -1.3300    4.0948   11.2741 H      19  UNL19       0.0521
    112 H          -0.8379    3.3141   12.8091 H      19  UNL19       0.0521
    113 H          -2.3783    2.8667   12.0306 H      19  UNL19       0.0521
    114 H           0.2282    2.4408   10.9786 H      19  UNL19       0.2090
    115 O           0.0070    2.9368   13.5086 O.3    20  UNL20      -0.3982
    116 C          -1.4088    2.9368   13.5086 C.3    20  UNL20       0.0330
    117 H          -1.7741    3.9660   13.4693 H      20  UNL20       0.0521
    118 H          -1.7740    2.4436   14.4127 H      20  UNL20       0.0521
    119 H          -1.7641    2.3926   12.6304 H      20  UNL20       0.0521
    120 H           0.2927    3.4264   14.2987 H      20  UNL20       0.2090
    121 O          -0.4720    3.6376   14.9702 O.3    21  UNL21      -0.3982
    122 C          -1.1280    2.8090   15.9123 C.3    21  UNL21       0.0330
    123 H          -1.2187    1.7976   15.5085 H      21  UNL21       0.0521
    124 H          -2.1185    3.2162   16.1295 H      21  UNL21       0.0521
    125 H          -0.5385    2.7806   16.8317 H      21  UNL21       0.0521
    126 H          -1.0181    3.6434   14.1656 H      21  UNL21       0.2090
    127 O          -0.0044    5.1714    0.1600 O.3    22  UNL22      -0.3982
    128 C          -1.4101    5.1714   -0.0092 C.3    22  UNL22       0.0330
    129 H          -1.8650    4.4898    0.7138 H      22  UNL22       0.0521
    130 H          -1.6555    4.8572   -1.0266 H      22  UNL22       0.0521
    131 H          -1.7882    6.1826    0.1587 H      22  UNL22       0.0521
    132 H           0.3020    4.2617    0.0049 H      22  UNL22       0.2090
    133 O          -0.5399    5.1787    1.0045 O.3    23  UNL23      -0.3982
    134 C          -1.1959    5.1787    2.2591 C.3    23  UNL23       0.0330
    135 H          -0.7580    4.4097    2.9003 H      23  UNL23       0.0521
    136 H          -2.2613    4.9840    2.1141 H      23  UNL23       0.0521
    137 H          -1.0671    6.1573    2.7274 H      23  UNL23       0.0521
    138 H          -0.6716    4.2983    0.6132 H      23  UNL23       0.2090
    139 O          -0.5793    4.2038    3.3943 O.3    24  UNL24      -0.3982
    140 C          -1.2641    5.1591    4.1834 C.3    24  UNL24       0.0330
    141 H          -2.1571    5.4987    3.6527 H      24  UNL24       0.0521
    142 H          -0.6039    6.0058    4.3865 H      24  UNL24       0.0521
    143 H          -1.5586    4.6948    5.1275 H      24  UNL24       0.0521
    144 H          -0.3308    4.6444    2.5638 H      24  UNL24       0.2090
    145 O          -0.0051    5.2029    5.8818 O.3    25  UNL25      -0.3982
    146 C          -1.4209    5.2029    5.8818 C.3    25  UNL25       0.0330
    147 H          -1.7862    4.4339    6.5670 H      25  UNL25       0.0521
    148 H          -1.7861    5.0082    4.8705 H      25  UNL25       0.0521
    149 H          -1.7762    6.1815    6.2130 H      25  UNL25       0.0521
    150 H           0.2806    4.3225    5.5838 H      25  UNL25       0.2090
    151 O          -0.5399    5.1787    6.8492 O.3    26  UNL26      -0.3982
    152 C          -1.1959    5.1787    8.1039 C.3    26  UNL26       0.0330
    153 H          -0.7580    4.4097    8.7451 H      26  UNL26       0.0521
    154 H          -2.2613    4.9840    7.9589 H      26  UNL26       0.0521
    155 H          -1.0671    6.1573    8.5722 H      26  UNL26       0.0521
    156 H          -0.6716    4.2983    6.4580 H      26  UNL26       0.2090
    157 O          -0.3908    5.2220    8.9108 O.3    27  UNL27      -0.3982
    158 C          -1.3846    5.1423    9.9159 C.3    27  UNL27       0.0330
    159 H          -0.9130    5.1901   10.9006 H      27  UNL27       0.0521
    160 H          -1.9370    4.2055    9.8099 H      27  UNL27       0.0521
    161 H          -2.0727    5.9833    9.8027 H      27  UNL27       0.0521
    162 H           0.2045    4.4634    9.0368 H      27  UNL27       0.2090
    163 O          -0.0293    5.1666   11.7386 O.3    28  UNL28      -0.3982
    164 C          -1.4451    5.1666   11.7386 C.3    28  UNL28       0.0330
    165 H          -1.8104    4.3976   12.4238 H      28  UNL28       0.0521
    166 H          -1.8103    4.9719   10.7273 H      28  UNL28       0.0521
    167 H          -1.8004    6.1452   12.0698 H      28  UNL28       0.0521
    168 H           0.2564    4.2862   11.4406 H      28  UNL28       0.2090
    169 O          -0.5399    4.3090   14.2286 O.3    29  UNL29      -0.3982
    170 C          -1.1959    5.1401   13.2887 C.3    29  UNL29       0.0330
    171 H          -0.7580    6.1409   13.3177 H      29  UNL29       0.0521
    172 H          -2.2613    5.1899   13.5262 H      29  UNL29       0.0521
    173 H          -1.0671    4.7172   12.2896 H      29  UNL29       0.0521
    174 H          -0.6716    4.7094   15.1049 H      29  UNL29       0.2090
    175 O           0.0433    5.1787   15.6230 O.3    30  UNL30      -0.3982
    176 C          -1.3725    5.1787   15.6230 C.3    30  UNL30       0.0330
    177 H          -1.7378    4.4097   16.3082 H      30  UNL30       0.0521
    178 H          -1.7377    4.9840   14.6117 H      30  UNL30       0.0521
    179 H          -1.7278    6.1573   15.9542 H      30  UNL30       0.0521
    180 H           0.3290    4.2983   15.3250 H      30  UNL30       0.2090
    181 O           2.3128   -1.1375    2.1009 O.3    31  UNL31      -0.3982
    182 C           0.8970   -1.1375    2.1009 C.3    31  UNL31       0.0330
    183 H           0.5317   -1.7646    1.2839 H      31  UNL31       0.0521
    184 H           0.5318   -0.1147    1.9807 H      31  UNL31       0.0521
    185 H           0.5417   -1.5394    3.0527 H      31  UNL31       0.0521
    186 H           2.5985   -0.7759    1.2447 H      31  UNL31       0.2090
    187 O           0.2149   -0.9219    5.9302 O.3    32  UNL32      -0.3982
    188 C          -1.2009   -0.9219    5.9302 C.3    32  UNL32       0.0330
    189 H          -1.5662   -1.6909    6.6154 H      32  UNL32       0.0521
    190 H          -1.5661   -1.1166    4.9189 H      32  UNL32       0.0521
    191 H          -1.5562    0.0567    6.2614 H      32  UNL32       0.0521
    192 H           0.5006   -1.8023    5.6322 H      32  UNL32       0.2090
    193 O           1.5367   -1.5538    6.8627 O.3    33  UNL33      -0.3982
    194 C           0.9462   -1.0947    8.0647 C.3    33  UNL33       0.0330
    195 H           0.6890   -0.0373    7.9648 H      33  UNL33       0.0521
    196 H           1.6464   -1.2337    8.8920 H      33  UNL33       0.0521
    197 H           0.0386   -1.6715    8.2576 H      33  UNL33       0.0521
    198 H           2.3391   -1.0238    6.7180 H      33  UNL33       0.2090
    199 O           2.3612   -1.1134   13.4933 O.3    34  UNL34      -0.3982
    200 C           0.9454   -1.1134   13.4933 C.3    34  UNL34       0.0330
    201 H           0.5801   -0.1042   13.6993 H      34  UNL34       0.0521
    202 H           0.5802   -1.8071   14.2545 H      34  UNL34       0.0521
    203 H           0.5901   -1.4337   12.5110 H      34  UNL34       0.0521
    204 H           2.6469   -0.8252   14.3769 H      34  UNL34       0.2090
    205 O           0.8591   -0.7824   -1.0101 O.3    35  UNL35      -0.3982
    206 C           1.4130   -0.7824    0.2928 C.3    35  UNL35       0.0330
    207 H           2.1865   -1.5514    0.3609 H      35  UNL35       0.0521
    208 H           0.6252   -0.9771    1.0245 H      35  UNL35       0.0521
    209 H           1.8568    0.1962    0.4902 H      35  UNL35       0.0521
    210 H           0.4730   -1.6628   -1.1565 H      35  UNL35       0.2090
    211 O           1.3432    1.3363    2.9137 O.3    36  UNL36      -0.3982
    212 C           1.0392    0.7549    1.6590 C.3    36  UNL36       0.0330
    213 H           1.3609   -0.2895    1.6528 H      36  UNL36       0.0521
    214 H           1.5486    1.3089    0.8668 H      36  UNL36       0.0521
    215 H          -0.0402    0.8024    1.4976 H      36  UNL36       0.0521
    216 H           2.3071    1.2796    3.0287 H      36  UNL36       0.2090
    217 O           1.8280    1.0976    4.8147 O.3    37  UNL37      -0.3982
    218 C           1.1720    1.0976    3.5601 C.3    37  UNL37       0.0330
    219 H           0.1174    1.3485    3.6993 H      37  UNL37       0.0521
    220 H           1.2651    0.1112    3.0993 H      37  UNL37       0.0521
    221 H           1.6398    1.8446    2.9145 H      37  UNL37       0.0521
    222 H           1.3914    0.4256    5.3654 H      37  UNL37       0.2090
    223 O           0.2754    1.3600    7.5989 O.3    38  UNL38      -0.3982
    224 C           1.5943    0.8468    7.6387 C.3    38  UNL38       0.0330
    225 H           1.5883   -0.1402    8.1077 H      38  UNL38       0.0521
    226 H           2.2341    1.5275    8.2057 H      38  UNL38       0.0521
    227 H           1.9728    0.7603    6.6175 H      38  UNL38       0.0521
    228 H          -0.0335    1.4256    8.5186 H      38  UNL38       0.2090
    229 O           1.7554    1.8947    9.7483 O.3    39  UNL39      -0.3982
    230 C           1.1041    0.6573    9.5268 C.3    39  UNL39       0.0330
    231 H           0.0728    0.7184    9.8831 H      39  UNL39       0.0521
    232 H           1.6374   -0.1361   10.0562 H      39  UNL39       0.0521
    233 H           1.1051    0.4420    8.4557 H      39  UNL39       0.0521
    234 H           1.7390    2.0586   10.7066 H      39  UNL39       0.2090
    235 O           2.3128    0.8710   11.5483 O.3    40  UNL40      -0.3982
    236 C           0.8970    0.8710   11.5483 C.3    40  UNL40       0.0330
    237 H           0.5317    1.9002   11.5089 H      40  UNL40       0.0521
    238 H           0.5318    0.3778   12.4523 H      40  UNL40       0.0521
    239 H           0.5417    0.3268   10.6701 H      40  UNL40       0.0521
    240 H           2.5985    1.3606   12.3383 H      40  UNL40       0.2090
    241 O           1.6045    1.9341   13.7747 O.3    41  UNL41      -0.3982
    242 C           1.3005    0.6081   13.3826 C.3    41  UNL41       0.0330
    243 H           0.2432    0.5396   13.1149 H      41  UNL41       0.0521
    244 H           1.5242   -0.0762   14.2047 H      41  UNL41       0.0521
    245 H           1.9114    0.3449   12.5159 H      41  UNL41       0.0521
    246 H           1.0476    2.1391   14.5450 H      41  UNL41       0.2090
    247 O           0.4817    0.3615   15.0570 O.3    42  UNL42      -0.3982
    248 C           1.2895    1.1294   15.9301 C.3    42  UNL42       0.0330
    249 H           1.4250    2.1315   15.5157 H      42  UNL42       0.0521
    250 H           2.2589    0.6409   16.0549 H      42  UNL42       0.0521
    251 H           0.7933    1.2029   16.9006 H      42  UNL42       0.0521
    252 H           0.9474    0.3138   14.2047 H      42  UNL42       0.2090
    253 O           0.6934    0.3208    0.6621 O.3    43  UNL43      -0.3982
    254 C           1.3918    1.3259   -0.0496 C.3    43  UNL43       0.0330
    255 H           0.8319    1.5923   -0.9495 H      43  UNL43       0.0521
    256 H           2.3846    0.9587   -0.3206 H      43  UNL43       0.0521
    257 H           1.4932    2.2073    0.5880 H      43  UNL43       0.0521
    258 H           0.6188   -0.4480    0.0714 H      43  UNL43       0.2090
    259 O           0.8919    3.9717    2.1623 O.3    44  UNL44      -0.3982
    260 C           1.2662    2.6102    2.0584 C.3    44  UNL44       0.0330
    261 H           2.3180    2.5415    1.7697 H      44  UNL44       0.0521
    262 H           0.6395    2.1150    1.3127 H      44  UNL44       0.0521
    263 H           1.1247    2.1278    3.0284 H      44  UNL44       0.0521
    264 H           1.0282    4.3730    1.2872 H      44  UNL44       0.2090
    265 O           2.2864    3.1056    3.8149 O.3    45  UNL45      -0.3982
    266 C           0.8807    3.0645    3.9791 C.3    45  UNL45       0.0330
    267 H           0.6019    2.1531    4.5138 H      45  UNL45       0.0521
    268 H           0.3978    3.0869    2.9991 H      45  UNL45       0.0521
    269 H           0.5651    3.9353    4.5584 H      45  UNL45       0.0521
    270 H           2.5367    2.3211    3.2977 H      45  UNL45       0.2090
    271 O           2.3370    3.0362    5.9869 O.3    46  UNL46      -0.3982
    272 C           0.9212    3.0362    5.9869 C.3    46  UNL46       0.0330
    273 H           0.5559    2.0069    6.0222 H      46  UNL46       0.0521
    274 H           0.5560    3.5330    5.0848 H      46  UNL46       0.0521
    275 H           0.5659    3.5770    6.8672 H      46  UNL46       0.0521
    276 H           2.6227    2.5498    5.1949 H      46  UNL46       0.2090
    277 O           2.3128    2.9005    7.6517 O.3    47  UNL47      -0.3982
    278 C           0.8970    2.9005    7.6517 C.3    47  UNL47       0.0330
    279 H           0.5317    3.9297    7.6124 H      47  UNL47       0.0521
    280 H           0.5318    2.4073    8.5558 H      47  UNL47       0.0521
    281 H           0.5417    2.3563    6.7736 H      47  UNL47       0.0521
    282 H           2.5985    3.3901    8.4418 H      47  UNL47       0.2090
    283 O          -1.6077    2.6953   10.3624 O.3    48  UNL48      -0.3982
    284 C          -0.5519    2.9587    9.4567 C.3    48  UNL48       0.0330
    285 H           0.4066    2.7900    9.9538 H      48  UNL48       0.0521
    286 H          -0.6176    3.9929    9.1100 H      48  UNL48       0.0521
    287 H          -0.6403    2.2839    8.6020 H      48  UNL48       0.0521
    288 H          -1.5028    3.3087   11.1096 H      48  UNL48       0.2090
    289 O           1.6307    2.0455   11.2636 O.3    49  UNL49      -0.3982
    290 C           0.9746    3.1681   11.8240 C.3    49  UNL49       0.0330
    291 H           0.9879    3.9939   11.1083 H      49  UNL49       0.0521
    292 H           1.4800    3.4634   12.7467 H      49  UNL49       0.0521
    293 H          -0.0604    2.8995   12.0479 H      49  UNL49       0.0521
    294 H           2.5461    2.3141   11.0756 H      49  UNL49       0.2090
    295 O           2.3128    3.0412   13.8019 O.3    50  UNL50      -0.3982
    296 C           0.8970    3.0412   13.8019 C.3    50  UNL50       0.0330
    297 H           0.5317    2.1081   13.3660 H      50  UNL50       0.0521
    298 H           0.5318    3.8935   13.2237 H      50  UNL50       0.0521
    299 H           0.5417    3.1234   14.8318 H      50  UNL50       0.0521
    300 H           2.5985    2.9674   12.8754 H      50  UNL50       0.2090
    301 O           1.7486    2.6670   14.6918 O.3    51  UNL51      -0.3982
    302 C           1.0603    2.8815   15.9102 C.3    51  UNL51       0.0330
    303 H           0.1384    3.4355   15.7164 H      51  UNL51       0.0521
    304 H           1.6985    3.4438   16.5961 H      51  UNL51       0.0521
    305 H           0.8149    1.9141   16.3547 H      51  UNL51       0.0521
    306 H           1.9529    3.5425   14.3211 H      51  UNL51       0.2090
    307 O           2.3128    4.9872   -0.1566 O.3    52  UNL52      -0.3982
    308 C           0.8970    4.9872   -0.1566 C.3    52  UNL52       0.0330
    309 H           0.5317    5.9964    0.0494 H      52  UNL52       0.0521
    310 H           0.5318    4.2935    0.6046 H      52  UNL52       0.0521
    311 H           0.5417    4.6669   -1.1388 H      52  UNL52       0.0521
    312 H           2.5985    5.2754    0.7271 H      52  UNL52       0.2090
    313 O           1.7780    4.1129    2.1368 O.3    53  UNL53      -0.3982
    314 C           1.1220    5.2837    1.6859 C.3    53  UNL53       0.0330
    315 H           1.5599    6.1584    2.1730 H      53  UNL53       0.0521
    316 H           0.0566    5.2184    1.9197 H      53  UNL53       0.0521
    317 H           1.2508    5.3690    0.6043 H      53  UNL53       0.0521
    318 H           1.6463    4.0642    3.0990 H      53  UNL53       0.2090
    319 O           1.6915    5.4709    2.9986 O.3    54  UNL54      -0.3982
    320 C           1.0355    4.7581    4.0310 C.3    54  UNL54       0.0330
    321 H           0.2590    5.3874    4.4730 H      54  UNL54       0.0521
    322 H           1.7624    4.4683    4.7936 H      54  UNL54       0.0521
    323 H           0.5773    3.8611    3.6079 H      54  UNL54       0.0521
    324 H           2.0880    6.2608    3.4040 H      54  UNL54       0.2090
    325 O           2.3128    5.2029    5.8818 O.3    55  UNL55      -0.3982
    326 C           0.8970    5.2029    5.8818 C.3    55  UNL55       0.0330
    327 H           0.5317    4.4339    6.5670 H      55  UNL55       0.0521
    328 H           0.5318    5.0082    4.8705 H      55  UNL55       0.0521
    329 H           0.5417    6.1815    6.2130 H      55  UNL55       0.0521
    330 H           2.5985    4.3225    5.5838 H      55  UNL55       0.2090
    331 O           1.6930    5.2358    6.8027 O.3    56  UNL56      -0.3982
    332 C           1.1762    5.1470    8.1178 C.3    56  UNL56       0.0330
    333 H           1.5721    4.2532    8.6063 H      56  UNL56       0.0521
    334 H           0.0851    5.1011    8.0791 H      56  UNL56       0.0521
    335 H           1.4816    6.0325    8.6802 H      56  UNL56       0.0521
    336 H           1.4057    4.4371    6.3283 H      56  UNL56       0.2090
    337 O           2.0287    4.7336    9.2590 O.3    57  UNL57      -0.3982
    338 C           0.9560    5.2720   10.0098 C.3    57  UNL57       0.0330
    339 H           0.1055    4.5866    9.9751 H      57  UNL57       0.0521
    340 H           0.6722    6.2430    9.5967 H      57  UNL57       0.0521
    341 H           1.2765    5.3993   11.0465 H      57  UNL57       0.0521
    342 H           1.7147    4.6321    8.3443 H      57  UNL57       0.2090
    343 O           2.3128    5.1787   11.7386 O.3    58  UNL58      -0.3982
    344 C           0.8970    5.1787   11.7386 C.3    58  UNL58       0.0330
    345 H           0.5317    4.4097   12.4238 H      58  UNL58       0.0521
    346 H           0.5318    4.9840   10.7273 H      58  UNL58       0.0521
    347 H           0.5417    6.1573   12.0698 H      58  UNL58       0.0521
    348 H           2.5985    4.2983   11.4406 H      58  UNL58       0.2090
    349 O           1.7780    5.1787   12.6940 O.3    59  UNL59      -0.3982
    350 C           1.1220    5.1787   13.9486 C.3    59  UNL59       0.0330
    351 H           1.5599    4.4097   14.5898 H      59  UNL59       0.0521
    352 H           0.0566    4.9840   13.8036 H      59  UNL59       0.0521
    353 H           1.2508    6.1573   14.4169 H      59  UNL59       0.0521
    354 H           1.6463    4.2983   12.3027 H      59  UNL59       0.2090
    355 O           0.6070    4.6664   14.7555 O.3    60  UNL60      -0.3982
    356 C           1.5548    4.9759   15.7607 C.3    60  UNL60       0.0330
    357 H           1.1074    4.8193   16.7454 H      60  UNL60       0.0521
    358 H           1.8732    6.0158   15.6546 H      60  UNL60       0.0521
    359 H           2.4202    4.3188   15.6474 H      60  UNL60       0.0521
    360 H          -0.1489    5.2650   14.8815 H      60  UNL60       0.2090
    361 O           4.1718   -0.9700   -0.9168 O.3    61  UNL61      -0.3982
    362 C           3.5158   -0.9700    0.3379 C.3    61  UNL61       0.0330
    363 H           3.5933   -1.9616    0.7907 H      61  UNL61       0.0521
    364 H           2.4655   -0.7015    0.2008 H      61  UNL61       0.0521
    365 H           3.9952   -0.2358    0.9895 H      61  UNL61       0.0521
    366 H           3.7247   -1.6306   -1.4729 H      61  UNL61       0.2090
    367 O           4.6307   -1.0898    1.7846 O.3    62  UNL62      -0.3982
    368 C           3.2149   -1.0898    1.7846 C.3    62  UNL62       0.0330
    369 H           2.8496   -0.1583    2.2242 H      62  UNL62       0.0521
    370 H           2.8497   -1.9443    2.3594 H      62  UNL62       0.0521
    371 H           2.8596   -1.1679    0.7544 H      62  UNL62       0.0521
    372 H           4.9164   -1.0196    2.7114 H      62  UNL62       0.2090
    373 O           1.8312    0.2446    2.9317 O.3    63  UNL63      -0.3982
    374 C           1.5272    0.5117    4.2885 C.3    63  UNL63       0.0330
    375 H           0.9488    1.4363    4.3581 H      63  UNL63       0.0521
    376 H           2.4545    0.6056    4.8589 H      63  UNL63       0.0521
    377 H           0.9373   -0.3157    4.6899 H      63  UNL63       0.0521
    378 H           2.3546    0.9953    2.6031 H      63  UNL63       0.2090
    379 O           4.0094   -0.9098   10.6825 O.3    64  UNL64      -0.3982
    380 C           3.3534   -0.9098    9.4278 C.3    64  UNL64       0.0330
    381 H           2.5769   -1.6788    9.4216 H      64  UNL64       0.0521
    382 H           4.0803   -1.1045    8.6356 H      64  UNL64       0.0521
    383 H           2.8952    0.0688    9.2664 H      64  UNL64       0.0521
    384 H           4.4059   -1.7902   10.7975 H      64  UNL64       0.2090
    385 O           2.6428   -0.9219   16.6351 O.3    65  UNL65      -0.3982
    386 C           1.2270   -0.9219   16.6351 C.3    65  UNL65       0.0330
    387 H           0.8617   -1.6909   17.3203 H      65  UNL65       0.0521
    388 H           0.8618   -1.1166   15.6238 H      65  UNL65       0.0521
    389 H           0.8717    0.0567   16.9663 H      65  UNL65       0.0521
    390 H           2.9285   -1.8023   16.3371 H      65  UNL65       0.2090
    391 O           3.9577    1.0595    0.9924 O.3    66  UNL66      -0.3982
    392 C           3.3017    1.0595   -0.2622 C.3    66  UNL66       0.0330
    393 H           2.8856    0.0679   -0.4569 H      66  UNL66       0.0521
    394 H           4.0135    1.3280   -1.0465 H      66  UNL66       0.0521
    395 H           2.4930    1.7937   -0.2403 H      66  UNL66       0.0521
    396 H           4.6696    0.3989    0.9426 H      66  UNL66       0.2090
    397 O           4.0945    1.8917    1.9929 O.3    67  UNL67      -0.3982
    398 C           3.4385    0.6729    1.6952 C.3    67  UNL67       0.0330
    399 H           2.3749    0.7638    1.9295 H      67  UNL67       0.0521
    400 H           3.8840   -0.1344    2.2816 H      67  UNL67       0.0521
    401 H           3.5577    0.4559    0.6311 H      67  UNL67       0.0521
    402 H           3.9716    2.0576    2.9431 H      67  UNL67       0.2090
    403 O           4.6125    0.6331    3.9317 O.3    68  UNL68      -0.3982
    404 C           3.2169    0.8364    3.8072 C.3    68  UNL68       0.0330
    405 H           3.0293    1.6931    3.1551 H      68  UNL68       0.0521
    406 H           2.7843    1.0149    4.7946 H      68  UNL68       0.0521
    407 H           2.7653   -0.0572    3.3702 H      68  UNL68       0.0521
    408 H           4.9854    1.4419    4.3219 H      68  UNL68       0.2090
    409 O           4.2338    1.0731    6.6530 O.3    69  UNL69      -0.3982
    410 C           3.3909    1.1894    5.5214 C.3    69  UNL69       0.0330
    411 H           2.3817    0.8612    5.7824 H      69  UNL69       0.0521
    412 H           3.7857    0.5766    4.7074 H      69  UNL69       0.0521
    413 H           3.3616    2.2350    5.2062 H      69  UNL69       0.0521
    414 H           4.2400    0.1351    6.9094 H      69  UNL69       0.2090
    415 O           4.0108   -0.0252    9.5847 O.3    70  UNL70      -0.3982
    416 C           3.3548    1.2294    9.5847 C.3    70  UNL70       0.0330
    417 H           4.0798    2.0207    9.7907 H      70  UNL70       0.0521
    418 H           2.5708    1.2316   10.3459 H      70  UNL70       0.0521
    419 H           2.9063    1.3958    8.6024 H      70  UNL70       0.0521
    420 H           4.3985   -0.1449   10.4683 H      70  UNL70       0.2090
    421 O           3.9577    1.0595   12.6819 O.3    71  UNL71      -0.3982
    422 C           3.3017    1.0595   11.4273 C.3    71  UNL71       0.0330
    423 H           2.8856    0.0679   11.2326 H      71  UNL71       0.0521
    424 H           4.0135    1.3280   10.6430 H      71  UNL71       0.0521
    425 H           2.4930    1.7937   11.4492 H      71  UNL71       0.0521
    426 H           4.6696    0.3989   12.6321 H      71  UNL71       0.2090
    427 O           4.6428    0.9881   13.5225 O.3    72  UNL72      -0.3982
    428 C           3.2270    0.9881   13.5225 C.3    72  UNL72       0.0330
    429 H           2.8617    1.9196   13.9621 H      72  UNL72       0.0521
    430 H           2.8618    0.1336   14.0974 H      72  UNL72       0.0521
    431 H           2.8717    0.9100   12.4923 H      72  UNL72       0.0521
    432 H           4.9285    1.0583   14.4493 H      72  UNL72       0.2090
    433 O           3.9415   -0.0121   15.8984 O.3    73  UNL73      -0.3982
    434 C           3.2855    1.2067   15.6007 C.3    73  UNL73       0.0330
    435 H           3.0376    1.2378   14.5368 H      73  UNL73       0.0521
    436 H           3.9375    2.0449   15.8584 H      73  UNL73       0.0521
    437 H           2.3667    1.2685   16.1886 H      73  UNL73       0.0521
    438 H           4.7524   -0.0384   15.3623 H      73  UNL73       0.2090
    439 O           4.6102    3.1405    0.1702 O.3    74  UNL74      -0.3982
    440 C           3.2046    3.0810    0.0118 C.3    74  UNL74       0.0330
    441 H           2.8086    2.2347    0.5786 H      74  UNL74       0.0521
    442 H           2.9608    2.9699   -1.0475 H      74  UNL74       0.0521
    443 H           2.7649    4.0072    0.3894 H      74  UNL74       0.0521
    444 H           4.9720    2.3059   -0.1733 H      74  UNL74       0.2090
    445 O           3.9335    2.8234    2.9377 O.3    75  UNL75      -0.3982
    446 C           3.2775    3.1211    1.7189 C.3    75  UNL75       0.0330
    447 H           2.8614    2.2040    1.2945 H      75  UNL75       0.0521
    448 H           3.9893    3.5681    1.0207 H      75  UNL75       0.0521
    449 H           2.4688    3.8291    1.9144 H      75  UNL75       0.0521
    450 H           4.6454    2.1935    2.7325 H      75  UNL75       0.2090
    451 O           3.1223    1.9683    3.7157 O.3    76  UNL76      -0.3982
    452 C           3.6311    3.2895    3.7157 C.3    76  UNL76       0.0330
    453 H           4.7042    3.2677    3.9217 H      76  UNL76       0.0521
    454 H           3.1151    3.8796    4.4769 H      76  UNL76       0.0521
    455 H           3.4599    3.7361    2.7335 H      76  UNL76       0.0521
    456 H           3.2885    1.5981    4.5994 H      76  UNL76       0.2090
    457 O           4.6549    3.0604    5.9869 O.3    77  UNL77      -0.3982
    458 C           3.2391    3.0604    5.9869 C.3    77  UNL77       0.0330
    459 H           2.8738    2.0311    6.0222 H      77  UNL77       0.0521
    460 H           2.8739    3.5572    5.0848 H      77  UNL77       0.0521
    461 H           2.8838    3.6012    6.8672 H      77  UNL77       0.0521
    462 H           4.9406    2.5740    5.1949 H      77  UNL77       0.2090
    463 O           4.6065    2.9577    7.6606 O.3    78  UNL78      -0.3982
    464 C           3.1907    2.9577    7.6606 C.3    78  UNL78       0.0330
    465 H           2.8254    3.9669    7.8666 H      78  UNL78       0.0521
    466 H           2.8255    2.2640    8.4218 H      78  UNL78       0.0521
    467 H           2.8354    2.6374    6.6784 H      78  UNL78       0.0521
    468 H           4.8922    3.2459    8.5443 H      78  UNL78       0.2090
    469 O           2.6428    3.0890    9.8366 O.3    79  UNL79      -0.3982
    470 C           1.2270    3.0890    9.8366 C.3    79  UNL79       0.0330
    471 H           0.8617    2.0974   10.1151 H      79  UNL79       0.0521
    472 H           0.8618    3.3575    8.8423 H      79  UNL79       0.0521
    473 H           0.8717    3.8232   10.5634 H      79  UNL79       0.0521
    474 H           2.9285    2.4284    9.1827 H      79  UNL79       0.2090
    475 O           3.9244    3.1773   10.6740 O.3    80  UNL80      -0.3982
    476 C           3.2683    2.8796   11.8928 C.3    80  UNL80       0.0330
    477 H           3.2816    3.7605   12.5395 H      80  UNL80       0.0521
    478 H           3.7737    2.0452   12.3852 H      80  UNL80       0.0521
    479 H           2.2333    2.6017   11.6805 H      80  UNL80       0.0521
    480 H           4.8398    3.4201   10.8942 H      80  UNL80       0.2090
    481 O           4.6428    2.9336   13.8025 O.3    81  UNL81      -0.3982
    482 C           3.2270    2.9336   13.8025 C.3    81  UNL81       0.0330
    483 H           2.8617    2.3065   12.9855 H      81  UNL81       0.0521
    484 H           2.8618    3.9564   13.6823 H      81  UNL81       0.0521
    485 H           2.8717    2.5317   14.7543 H      81  UNL81       0.0521
    486 H           4.9285    3.2952   12.9463 H      81  UNL81       0.2090
    487 O           2.2886    1.4671   13.7451 O.3    82  UNL82      -0.3982
    488 C           0.8728    1.4671   13.7451 C.3    82  UNL82       0.0330
    489 H           0.5075    0.6981   14.4303 H      82  UNL82       0.0521
    490 H           0.5076    1.2724   12.7338 H      82  UNL82       0.0521
    491 H           0.5175    2.4457   14.0763 H      82  UNL82       0.0521
    492 H           2.5743    0.5867   13.4471 H      82  UNL82       0.2090
    493 O           4.6309    5.2081   -0.0753 O.3    83  UNL83      -0.3982
    494 C           3.2252    5.2081    0.0939 C.3    83  UNL83       0.0330
    495 H           2.9328    4.3627    0.7217 H      83  UNL83       0.0521
    496 H           2.7399    5.1357   -0.8824 H      83  UNL83       0.0521
    497 H           2.9257    6.1401    0.5789 H      83  UNL83       0.0521
    498 H           4.8666    4.3696   -0.5076 H      83  UNL83       0.2090
    499 O           4.0959    4.3090    2.5391 O.3    84  UNL84      -0.3982
    500 C           3.4399    5.1401    1.5992 C.3    84  UNL84       0.0330
    501 H           3.8778    6.1409    1.6282 H      84  UNL84       0.0521
    502 H           2.3745    5.1899    1.8367 H      84  UNL84       0.0521
    503 H           3.5687    4.7172    0.6001 H      84  UNL84       0.0521
    504 H           3.9642    4.7094    3.4154 H      84  UNL84       0.2090
    505 O           4.0094    5.1787    4.8619 O.3    85  UNL85      -0.3982
    506 C           3.3534    5.1787    3.6073 C.3    85  UNL85       0.0330
    507 H           2.5769    4.4097    3.6011 H      85  UNL85       0.0521
    508 H           4.0803    4.9840    2.8150 H      85  UNL85       0.0521
    509 H           2.8952    6.1573    3.4459 H      85  UNL85       0.0521
    510 H           4.4059    4.2983    4.9770 H      85  UNL85       0.2090
    511 O           4.6307    5.2029    5.8818 O.3    86  UNL86      -0.3982
    512 C           3.2149    5.2029    5.8818 C.3    86  UNL86       0.0330
    513 H           2.8496    4.4339    6.5670 H      86  UNL86       0.0521
    514 H           2.8497    5.0082    4.8705 H      86  UNL86       0.0521
    515 H           2.8596    6.1815    6.2130 H      86  UNL86       0.0521
    516 H           4.9164    4.3225    5.5838 H      86  UNL86       0.2090
    517 O           4.0959    5.1787    6.8492 O.3    87  UNL87      -0.3982
    518 C           3.4399    5.1787    8.1039 C.3    87  UNL87       0.0330
    519 H           3.8778    4.4097    8.7451 H      87  UNL87       0.0521
    520 H           2.3745    4.9840    7.9589 H      87  UNL87       0.0521
    521 H           3.5687    6.1573    8.5722 H      87  UNL87       0.0521
    522 H           3.9642    4.2983    6.4580 H      87  UNL87       0.2090
    523 O           3.2651    4.0851    9.2832 O.3    88  UNL88      -0.3982
    524 C           3.6577    5.2194   10.0340 C.3    88  UNL88       0.0330
    525 H           2.8663    5.9722    9.9993 H      88  UNL88       0.0521
    526 H           4.5829    5.6285    9.6209 H      88  UNL88       0.0521
    527 H           3.8260    4.9184   11.0707 H      88  UNL88       0.0521
    528 H           3.1231    4.3831    8.3685 H      88  UNL88       0.2090
    529 O           4.6307    5.1787   11.7265 O.3    89  UNL89      -0.3982
    530 C           3.2149    5.1787   11.7265 C.3    89  UNL89       0.0330
    531 H           2.8496    4.4097   12.4117 H      89  UNL89       0.0521
    532 H           2.8497    4.9840   10.7152 H      89  UNL89       0.0521
    533 H           2.8596    6.1573   12.0577 H      89  UNL89       0.0521
    534 H           4.9164    4.2983   11.4285 H      89  UNL89       0.2090
    535 O           4.0959    4.3090   14.2286 O.3    90  UNL90      -0.3982
    536 C           3.4399    5.1401   13.2887 C.3    90  UNL90       0.0330
    537 H           3.8778    6.1409   13.3177 H      90  UNL90       0.0521
    538 H           2.3745    5.1899   13.5262 H      90  UNL90       0.0521
    539 H           3.5687    4.7172   12.2896 H      90  UNL90       0.0521
    540 H           3.9642    4.7094   15.1049 H      90  UNL90       0.2090
    541 O           3.1663    4.4153   14.7555 O.3    91  UNL91      -0.3982
    542 C           3.8646    5.1270   15.7607 C.3    91  UNL91       0.0330
    543 H           3.5398    4.7817   16.7454 H      91  UNL91       0.0521
    544 H           3.6678    6.1965   15.6546 H      91  UNL91       0.0521
    545 H           4.9356    4.9428   15.6474 H      91  UNL91       0.0521
    546 H           2.2196    4.5981   14.8815 H      91  UNL91       0.2090
    547 O           6.2514   -1.2356    0.9652 O.3    92  UNL92      -0.3982
    548 C           5.5954   -0.9379   -0.2536 C.3    92  UNL92       0.0330
    549 H           5.1793   -1.8550   -0.6780 H      92  UNL92       0.0521
    550 H           6.3072   -0.4909   -0.9518 H      92  UNL92       0.0521
    551 H           4.7867   -0.2299   -0.0580 H      92  UNL92       0.0521
    552 H           6.9633   -1.8655    0.7601 H      92  UNL92       0.2090
    553 O           6.9849   -1.0993    2.1006 O.3    93  UNL93      -0.3982
    554 C           5.5691   -1.0993    2.1006 C.3    93  UNL93       0.0330
    555 H           5.2038   -1.9634    1.5399 H      93  UNL93       0.0521
    556 H           5.2039   -0.1754    1.6456 H      93  UNL93       0.0521
    557 H           5.2138   -1.1602    3.1319 H      93  UNL93       0.0521
    558 H           7.2706   -1.0445    1.1727 H      93  UNL93       0.2090
    559 O           6.9244   -0.9700    9.8366 O.3    94  UNL94      -0.3982
    560 C           5.5086   -0.9700    9.8366 C.3    94  UNL94       0.0330
    561 H           5.1433   -1.9616   10.1151 H      94  UNL94       0.0521
    562 H           5.1434   -0.7015    8.8423 H      94  UNL94       0.0521
    563 H           5.1533   -0.2358   10.5634 H      94  UNL94       0.0521
    564 H           7.2101   -1.6306    9.1827 H      94  UNL94       0.2090
    565 O           5.0707   -0.9582   13.6506 O.3    95  UNL95      -0.3982
    566 C           3.6549   -0.9582   13.6506 C.3    95  UNL95       0.0330
    567 H           3.2896   -1.7272   14.3358 H      95  UNL95       0.0521
    568 H           3.2897   -1.1529   12.6393 H      95  UNL95       0.0521
    569 H           3.2996    0.0204   13.9818 H      95  UNL95       0.0521
    570 H           5.3564   -1.8386   13.3526 H      95  UNL95       0.2090
    571 O           6.4897    0.8416   -0.8924 O.3    96  UNL96      -0.3982
    572 C           5.8337    1.1393    0.3264 C.3    96  UNL96       0.0330
    573 H           5.9112    0.2835    1.0016 H      96  UNL96       0.0521
    574 H           4.7834    1.3677    0.1295 H      96  UNL96       0.0521
    575 H           6.3131    2.0072    0.7852 H      96  UNL96       0.0521
    576 H           6.0426    0.0680   -1.2760 H      96  UNL96       0.2090
    577 O           6.9244    1.0818    1.9906 O.3    97  UNL97      -0.3982
    578 C           5.5086    1.0818    1.9906 C.3    97  UNL97       0.0330
    579 H           5.1433    0.1846    2.4965 H      97  UNL97       0.0521
    580 H           5.1434    1.1067    0.9611 H      97  UNL97       0.0521
    581 H           5.1533    1.9675    2.5225 H      97  UNL97       0.0521
    582 H           7.2101    0.2850    1.5121 H      97  UNL97       0.2090
    583 O           6.9728    0.9040    3.7399 O.3    98  UNL98      -0.3982
    584 C           5.5570    0.9040    3.7399 C.3    98  UNL98       0.0330
    585 H           5.1917    1.9132    3.9459 H      98  UNL98       0.0521
    586 H           5.1918    0.2103    4.5011 H      98  UNL98       0.0521
    587 H           5.2017    0.5837    2.7577 H      98  UNL98       0.0521
    588 H           7.2585    1.1922    4.6236 H      98  UNL98       0.2090
    589 O           6.4366    1.9081    5.7124 O.3    99  UNL99      -0.3982
    590 C           5.7806    0.6535    5.7124 C.3    99  UNL99       0.0330
    591 H           4.7170    0.7974    5.9184 H      99  UNL99       0.0521
    592 H           6.2261    0.0085    6.4736 H      99  UNL99       0.0521
    593 H           5.8998    0.1902    4.7301 H      99  UNL99       0.0521
    594 H           6.3137    2.2948    6.5960 H      99  UNL99       0.2090
    595 O           3.4008    1.6119    7.1301 O.3   100  UNL100     -0.3982
    596 C           4.0513    0.6032    7.8810 C.3   100  UNL100      0.0330
    597 H           3.7974    0.7136    8.9381 H     100  UNL100      0.0521
    598 H           5.1323    0.6860    7.7443 H     100  UNL100      0.0521
    599 H           3.7155   -0.3747    7.5281 H     100  UNL100      0.0521
    600 H           3.7185    2.4675    7.4656 H     100  UNL100      0.2090
    601 O           6.1546    0.3895   10.6077 O.3   101  UNL101     -0.3982
    602 C           5.8506    1.2520    9.5269 C.3   101  UNL101      0.0330
    603 H           4.7791    1.2100    9.3162 H     101  UNL101      0.0521
    604 H           6.4184    0.9462    8.6448 H     101  UNL101      0.0521
    605 H           6.1265    2.2734    9.7990 H     101  UNL101      0.0521
    606 H           5.8991   -0.5088   10.3370 H     101  UNL101      0.2090
    607 O           6.2756    1.0353   12.6819 O.3   102  UNL102     -0.3982
    608 C           5.6196    1.0353   11.4273 C.3   102  UNL102      0.0330
    609 H           5.2035    0.0437   11.2326 H     102  UNL102      0.0521
    610 H           6.3314    1.3038   10.6430 H     102  UNL102      0.0521
    611 H           4.8109    1.7695   11.4492 H     102  UNL102      0.0521
    612 H           6.9875    0.3747   12.6321 H     102  UNL102      0.2090
    613 O           6.9728    0.8344   13.7191 O.3   103  UNL103     -0.3982
    614 C           5.5570    0.8344   13.7191 C.3   103  UNL103      0.0330
    615 H           5.1917    0.7883   12.6902 H     103  UNL103      0.0521
    616 H           5.1918    1.7417   14.2064 H     103  UNL103      0.0521
    617 H           5.2017   -0.0401   14.2691 H     103  UNL103      0.0521
    618 H           7.2585    1.6213   13.2243 H     103  UNL103      0.2090
    619 O           5.4375    0.4104   16.3857 O.3   104  UNL104     -0.3982
    620 C           5.9950    0.9710   15.2112 C.3   104  UNL104      0.0330
    621 H           7.0819    1.0238   15.3120 H     104  UNL104      0.0521
    622 H           5.5840    1.9710   15.0532 H     104  UNL104      0.0521
    623 H           5.7407    0.3361   14.3592 H     104  UNL104      0.0521
    624 H           5.6797    0.9950   17.1240 H     104  UNL104      0.2090
    625 O           6.9300    2.8901   -0.1176 O.3   105  UNL105     -0.3982
    626 C           5.5345    2.8202    0.1104 C.3   105  UNL105      0.0330
    627 H           5.0176    2.6493   -0.8372 H     105  UNL105      0.0521
    628 H           5.1910    3.7541    0.5618 H     105  UNL105      0.0521
    629 H           5.3267    1.9912    0.7909 H     105  UNL105      0.0521
    630 H           7.0835    3.6343   -0.7243 H     105  UNL105      0.2090
    631 O           6.4897    3.0890    1.0315 O.3   106  UNL106     -0.3982
    632 C           5.8337    3.0890    2.2861 C.3   106  UNL106      0.0330
    633 H           5.9112    2.0974    2.7389 H     106  UNL106      0.0521
    634 H           4.7834    3.3575    2.1490 H     106  UNL106      0.0521
    635 H           6.3131    3.8232    2.9378 H     106  UNL106      0.0521
    636 H           6.0426    2.4284    0.4753 H     106  UNL106      0.2090
    637 O           6.9970    2.9335    3.7399 O.3   107  UNL107     -0.3982
    638 C           5.5812    2.9335    3.7399 C.3   107  UNL107      0.0330
    639 H           5.2159    3.9427    3.9459 H     107  UNL107      0.0521
    640 H           5.2160    2.2398    4.5011 H     107  UNL107      0.0521
    641 H           5.2259    2.6132    2.7577 H     107  UNL107      0.0521
    642 H           7.2827    3.2217    4.6236 H     107  UNL107      0.2090
    643 O           6.9607    3.0648    5.9643 O.3   108  UNL108     -0.3982
    644 C           5.5449    3.0648    5.9643 C.3   108  UNL108      0.0330
    645 H           5.1796    2.0732    6.2428 H     108  UNL108      0.0521
    646 H           5.1797    3.3333    4.9700 H     108  UNL108      0.0521
    647 H           5.1896    3.7990    6.6911 H     108  UNL108      0.0521
    648 H           7.2464    2.4042    5.3104 H     108  UNL108      0.2090
    649 O           6.9244    2.9335    7.6243 O.3   109  UNL109     -0.3982
    650 C           5.5086    2.9335    7.6243 C.3   109  UNL109      0.0330
    651 H           5.1433    3.9427    7.8303 H     109  UNL109      0.0521
    652 H           5.1434    2.2398    8.3855 H     109  UNL109      0.0521
    653 H           5.1533    2.6132    6.6421 H     109  UNL109      0.0521
    654 H           7.2101    3.2217    8.5080 H     109  UNL109      0.2090
    655 O           4.9607    2.8505    9.7594 O.3   110  UNL110     -0.3982
    656 C           3.5449    2.8505    9.7594 C.3   110  UNL110      0.0330
    657 H           3.1796    3.0078    8.7415 H     110  UNL110      0.0521
    658 H           3.1797    3.6441   10.4157 H     110  UNL110      0.0521
    659 H           3.1896    1.8848   10.1265 H     110  UNL110      0.0521
    660 H           5.2464    3.7193    9.4291 H     110  UNL110      0.2090
    661 O           6.0609    4.0692   11.7262 O.3   111  UNL111     -0.3982
    662 C           5.7569    2.7169   11.4373 C.3   111  UNL111      0.0330
    663 H           4.8688    2.4144   11.9977 H     111  UNL111      0.0521
    664 H           6.6058    2.0854   11.7104 H     111  UNL111      0.0521
    665 H           5.5611    2.6176   10.3671 H     111  UNL111      0.0521
    666 H           6.2298    4.1261   12.6821 H     111  UNL111      0.2090
    667 O           6.9486    2.9005   13.5086 O.3   112  UNL112     -0.3982
    668 C           5.5328    2.9005   13.5086 C.3   112  UNL112      0.0330
    669 H           5.1675    3.9297   13.4693 H     112  UNL112      0.0521
    670 H           5.1676    2.4073   14.4127 H     112  UNL112      0.0521
    671 H           5.1775    2.3563   12.6304 H     112  UNL112      0.0521
    672 H           7.2343    3.3901   14.2987 H     112  UNL112      0.2090
    673 O           4.8507    3.1011   16.6934 O.3   113  UNL113     -0.3982
    674 C           3.4349    3.1011   16.6934 C.3   113  UNL113      0.0330
    675 H           3.0696    2.1095   16.9720 H     113  UNL113      0.0521
    676 H           3.0697    3.3696   15.6992 H     113  UNL113      0.0521
    677 H           3.0796    3.8353   17.4203 H     113  UNL113      0.0521
    678 H           5.1364    2.4405   16.0395 H     113  UNL113      0.2090
    679 O           6.9486    5.1787    0.0370 O.3   114  UNL114     -0.3982
    680 C           5.5328    5.1787    0.0370 C.3   114  UNL114      0.0330
    681 H           5.1675    4.4097    0.7222 H     114  UNL114      0.0521
    682 H           5.1676    4.9840   -0.9743 H     114  UNL114      0.0521
    683 H           5.1775    6.1573    0.3682 H     114  UNL114      0.0521
    684 H           7.2343    4.2983   -0.2610 H     114  UNL114      0.2090
    685 O           6.2105    4.6973    2.9137 O.3   115  UNL115     -0.3982
    686 C           5.9065    5.2786    1.6590 C.3   115  UNL115      0.0330
    687 H           4.8652    5.6104    1.6528 H     115  UNL115      0.0521
    688 H           6.0708    4.5442    0.8668 H     115  UNL115      0.0521
    689 H           6.5614    6.1381    1.4976 H     115  UNL115      0.0521
    690 H           5.6140    3.9380    3.0287 H     115  UNL115      0.2090
    691 O           6.9244    5.1787    3.9335 O.3   116  UNL116     -0.3982
    692 C           5.5086    5.1787    3.9335 C.3   116  UNL116      0.0330
    693 H           5.1433    4.4097    4.6187 H     116  UNL116      0.0521
    694 H           5.1434    4.9840    2.9222 H     116  UNL116      0.0521
    695 H           5.1533    6.1573    4.2647 H     116  UNL116      0.0521
    696 H           7.2101    4.2983    3.6355 H     116  UNL116      0.2090
    697 O           6.9244    5.2029    5.8576 O.3   117  UNL117     -0.3982
    698 C           5.5086    5.2029    5.8576 C.3   117  UNL117      0.0330
    699 H           5.1433    4.4339    6.5428 H     117  UNL117      0.0521
    700 H           5.1434    5.0082    4.8463 H     117  UNL117      0.0521
    701 H           5.1533    6.1815    6.1888 H     117  UNL117      0.0521
    702 H           7.2101    4.3225    5.5596 H     117  UNL117      0.2090
    703 O           6.4138    5.1787    6.8250 O.3   118  UNL118     -0.3982
    704 C           5.7578    5.1787    8.0797 C.3   118  UNL118      0.0330
    705 H           6.1957    4.4097    8.7209 H     118  UNL118      0.0521
    706 H           4.6924    4.9840    7.9347 H     118  UNL118      0.0521
    707 H           5.8866    6.1573    8.5480 H     118  UNL118      0.0521
    708 H           6.2821    4.2983    6.4338 H     118  UNL118      0.2090
    709 O           5.3863    4.5737    8.9350 O.3   119  UNL119     -0.3982
    710 C           6.0846    5.2854    9.9401 C.3   119  UNL119      0.0330
    711 H           5.7598    4.9401   10.9248 H     119  UNL119      0.0521
    712 H           5.8878    6.3549    9.8341 H     119  UNL119      0.0521
    713 H           7.1556    5.1013    9.8269 H     119  UNL119      0.0521
    714 H           4.4396    4.7565    9.0610 H     119  UNL119      0.2090
    715 O           6.9244    5.1787   11.7265 O.3   120  UNL120     -0.3982
    716 C           5.5086    5.1787   11.7265 C.3   120  UNL120      0.0330
    717 H           5.1433    4.4097   12.4117 H     120  UNL120      0.0521
    718 H           5.1434    4.9840   10.7152 H     120  UNL120      0.0521
    719 H           5.1533    6.1573   12.0577 H     120  UNL120      0.0521
    720 H           7.2101    4.2983   11.4285 H     120  UNL120      0.2090
    721 O           6.4138    4.3090   14.2286 O.3   121  UNL121     -0.3982
    722 C           5.7578    5.1401   13.2887 C.3   121  UNL121      0.0330
    723 H           6.1957    6.1409   13.3177 H     121  UNL121      0.0521
    724 H           4.6924    5.1899   13.5262 H     121  UNL121      0.0521
    725 H           5.8866    4.7172   12.2896 H     121  UNL121      0.0521
    726 H           6.2821    4.7094   15.1049 H     121  UNL121      0.2090
    727 O           5.3659    4.1565   15.1279 O.3   122  UNL122     -0.3982
    728 C           6.0165    5.1652   15.8788 C.3   122  UNL122      0.0330
    729 H           5.4264    6.0843   15.8441 H     122  UNL122      0.0521
    730 H           7.0123    5.3430   15.4656 H     122  UNL122      0.0521
    731 H           6.1086    4.8328   16.9154 H     122  UNL122      0.0521
    732 H           5.2987    4.4796   14.2133 H     122  UNL122      0.2090
    733 O           9.3028   -1.1013    1.7917 O.3   123  UNL123     -0.3982
    734 C           7.8870   -1.1013    1.7917 C.3   123  UNL123      0.0330
    735 H           7.5217   -0.0921    1.9977 H     123  UNL123      0.0521
    736 H           7.5218   -1.7950    2.5529 H     123  UNL123      0.0521
    737 H           7.5317   -1.4216    0.8094 H     123  UNL123      0.0521
    738 H           9.5885   -0.8131    2.6753 H     123  UNL123      0.2090
    739 O           8.5814   -1.2235    4.9101 O.3   124  UNL124     -0.3982
    740 C           7.9254   -0.9258    3.6913 C.3   124  UNL124      0.0330
    741 H           7.5093   -1.8429    3.2669 H     124  UNL124      0.0521
    742 H           8.6372   -0.4788    2.9931 H     124  UNL124      0.0521
    743 H           7.1167   -0.2178    3.8869 H     124  UNL124      0.0521
    744 H           9.2933   -1.8534    4.7050 H     124  UNL124      0.2090
    745 O           8.8696   -1.0048    8.6496 O.3   125  UNL125     -0.3982
    746 C           8.0267   -0.8885    7.5181 C.3   125  UNL125      0.0330
    747 H           7.0175   -1.2167    7.7791 H     125  UNL125      0.0521
    748 H           8.4215   -1.5013    6.7040 H     125  UNL125      0.0521
    749 H           7.9974    0.1571    7.2029 H     125  UNL125      0.0521
    750 H           8.8758   -1.9428    8.9061 H     125  UNL125      0.2090
    751 O           9.2665   -0.9700    9.8366 O.3   126  UNL126     -0.3982
    752 C           7.8507   -0.9700    9.8366 C.3   126  UNL126      0.0330
    753 H           7.4854   -1.9616   10.1151 H     126  UNL126      0.0521
    754 H           7.4855   -0.7015    8.8423 H     126  UNL126      0.0521
    755 H           7.4954   -0.2358   10.5634 H     126  UNL126      0.0521
    756 H           9.5522   -1.6306    9.1827 H     126  UNL126      0.2090
    757 O           7.6086   -1.1134   13.4933 O.3   127  UNL127     -0.3982
    758 C           6.1928   -1.1134   13.4933 C.3   127  UNL127      0.0330
    759 H           5.8275   -0.1042   13.6993 H     127  UNL127      0.0521
    760 H           5.8276   -1.8071   14.2545 H     127  UNL127      0.0521
    761 H           5.8375   -1.4337   12.5110 H     127  UNL127      0.0521
    762 H           7.8943   -0.8252   14.3769 H     127  UNL127      0.2090
    763 O           9.2665    0.8952   -0.1654 O.3   128  UNL128     -0.3982
    764 C           7.8507    0.8952   -0.1654 C.3   128  UNL128      0.0330
    765 H           7.4854    1.9244   -0.2048 H     128  UNL128      0.0521
    766 H           7.4855    0.4020    0.7386 H     128  UNL128      0.0521
    767 H           7.4954    0.3510   -1.0436 H     128  UNL128      0.0521
    768 H           9.5522    1.3848    0.6246 H     128  UNL128      0.2090
    769 O           8.6950    0.0612    1.6125 O.3   129  UNL129     -0.3982
    770 C           8.0390    1.2800    1.9102 C.3   129  UNL129      0.0330
    771 H           8.7640    1.9999    2.2981 H     129  UNL129      0.0521
    772 H           7.2550    1.1015    2.6502 H     129  UNL129      0.0521
    773 H           7.5905    1.6748    0.9955 H     129  UNL129      0.0521
    774 H           9.0827   -0.2647    2.4425 H     129  UNL129      0.2090
    775 O           8.6419    0.5843    4.8257 O.3   130  UNL130     -0.3982
    776 C           7.9859    1.1627    3.7124 C.3   130  UNL130      0.0330
    777 H           7.5698    0.3725    3.0825 H     130  UNL130      0.0521
    778 H           8.6977    1.7626    3.1402 H     130  UNL130      0.0521
    779 H           7.1772    1.8041    4.0704 H     130  UNL130      0.0521
    780 H           9.3538    0.0211    4.4770 H     130  UNL130      0.2090
    781 O           8.7303    1.7525    5.3298 O.3   131  UNL131     -0.3982
    782 C           8.0743    0.5865    5.7930 C.3   131  UNL131      0.0330
    783 H           7.0107    0.7963    5.9314 H     131  UNL131      0.0521
    784 H           8.5198    0.2680    6.7386 H     131  UNL131      0.0521
    785 H           8.1935   -0.2067    5.0512 H     131  UNL131      0.0521
    786 H           8.6074    2.4381    6.0083 H     131  UNL131      0.2090
    787 O           7.2697    1.1114    7.6639 O.3   132  UNL132     -0.3982
    788 C           5.8885    1.0476    7.9682 C.3   132  UNL132      0.0330
    789 H           5.6423    0.0502    8.3411 H     132  UNL132      0.0521
    790 H           5.3060    1.2664    7.0700 H     132  UNL132      0.0521
    791 H           5.6595    1.7886    8.7377 H     132  UNL132      0.0521
    792 H           7.4425    0.4432    6.9789 H     132  UNL132      0.2090
    793 O           8.7303    1.8675    9.8101 O.3   133  UNL133     -0.3982
    794 C           8.0743    0.6487    9.5124 C.3   133  UNL133      0.0330
    795 H           7.0107    0.7396    9.7467 H     133  UNL133      0.0521
    796 H           8.5198   -0.1586   10.0988 H     133  UNL133      0.0521
    797 H           8.1935    0.4317    8.4483 H     133  UNL133      0.0521
    798 H           8.6074    2.0334   10.7603 H     133  UNL133      0.2090
    799 O           8.5935    1.2947   12.6276 O.3   134  UNL134     -0.3982
    800 C           7.9375    0.9970   11.4088 C.3   134  UNL134      0.0330
    801 H           7.5214   -0.0125   11.4550 H     134  UNL134      0.0521
    802 H           8.6493    1.0717   10.5831 H     134  UNL134      0.0521
    803 H           7.1288    1.7154   11.2558 H     134  UNL134      0.0521
    804 H           9.3054    0.6412   12.7359 H     134  UNL134      0.2090
    805 O           9.3028    1.0295   13.5397 O.3   135  UNL135     -0.3982
    806 C           7.8870    1.0295   13.5397 C.3   135  UNL135      0.0330
    807 H           7.5217    1.4485   14.4806 H     135  UNL135      0.0521
    808 H           7.5218    0.0069   13.4177 H     135  UNL135      0.0521
    809 H           7.5317    1.6425   12.7080 H     135  UNL135      0.0521
    810 H           9.5885    0.4780   14.2878 H     135  UNL135      0.2090
    811 O           6.6786    0.0542   16.4521 O.3   136  UNL136     -0.3982
    812 C           6.0226    1.3089   16.4521 C.3   136  UNL136      0.0330
    813 H           6.3393    1.8867   17.3240 H     136  UNL136      0.0521
    814 H           4.9410    1.1554   16.4767 H     136  UNL136      0.0521
    815 H           6.2910    1.8501   15.5419 H     136  UNL136      0.0521
    816 H           6.4214   -0.4027   17.2710 H     136  UNL136      0.2090
    817 O           8.6466    1.9736    0.0793 O.3   137  UNL137     -0.3982
    818 C           7.9906    3.1924   -0.2185 C.3   137  UNL137      0.0330
    819 H           8.7156    4.0100   -0.2061 H     137  UNL137      0.0521
    820 H           7.2066    3.3752    0.5205 H     137  UNL137      0.0521
    821 H           7.5421    3.1210   -1.2121 H     137  UNL137      0.0521
    822 H           9.0343    2.0670    0.9661 H     137  UNL137      0.2090
    823 O           8.7834    3.3006    1.0830 O.3   138  UNL138     -0.3982
    824 C           8.1274    3.0029    2.3018 C.3   138  UNL138      0.0330
    825 H           8.2049    1.9322    2.5064 H     138  UNL138      0.0521
    826 H           7.0771    3.2963    2.2324 H     138  UNL138      0.0521
    827 H           8.6068    3.5615    3.1091 H     138  UNL138      0.0521
    828 H           8.3363    2.7909    0.3860 H     138  UNL138      0.2090
    829 O           9.2958    3.0890    3.8623 O.3   139  UNL139     -0.3982
    830 C           7.8902    3.0890    4.0315 C.3   139  UNL139      0.0330
    831 H           7.5608    2.0974    4.3517 H     139  UNL139      0.0521
    832 H           7.4088    3.3575    3.0880 H     139  UNL139      0.0521
    833 H           7.6243    3.8232    4.7956 H     139  UNL139      0.0521
    834 H           9.5013    2.4284    3.1789 H     139  UNL139      0.2090
    835 O           9.2907    2.9093    5.7124 O.3   140  UNL140     -0.3982
    836 C           7.8749    2.9093    5.7124 C.3   140  UNL140      0.0330
    837 H           7.5096    3.9185    5.9184 H     140  UNL140      0.0521
    838 H           7.5097    2.2156    6.4736 H     140  UNL140      0.0521
    839 H           7.5196    2.5890    4.7301 H     140  UNL140      0.0521
    840 H           9.5764    3.1975    6.5960 H     140  UNL140      0.2090
    841 O           8.8168    2.9819    8.6687 O.3   141  UNL141     -0.3982
    842 C           8.1607    2.9819    7.4141 C.3   141  UNL141      0.0330
    843 H           7.8089    3.9911    7.1858 H     141  UNL141      0.0521
    844 H           7.3169    2.2882    7.4432 H     141  UNL141      0.0521
    845 H           8.8665    2.6616    6.6441 H     141  UNL141      0.0521
    846 H           8.1661    3.2701    9.3313 H     141  UNL141      0.2090
    847 O           7.2786    3.0176    9.6260 O.3   142  UNL142     -0.3982
    848 C           5.8628    3.0176    9.6260 C.3   142  UNL142      0.0330
    849 H           5.4975    3.9491   10.0656 H     142  UNL142      0.0521
    850 H           5.4976    2.1631   10.2009 H     142  UNL142      0.0521
    851 H           5.5075    2.9395    8.5958 H     142  UNL142      0.0521
    852 H           7.5643    3.0878   10.5528 H     142  UNL142      0.2090
    853 O           8.5602    2.9577   10.6318 O.3   143  UNL143     -0.3982
    854 C           7.9041    2.9577   11.8864 C.3   143  UNL143      0.0330
    855 H           7.9174    3.9669   12.3056 H     143  UNL143      0.0521
    856 H           8.4095    2.2640   12.5628 H     143  UNL143      0.0521
    857 H           6.8691    2.6374   11.7462 H     143  UNL143      0.0521
    858 H           9.4756    3.2459   10.7881 H     143  UNL143      0.2090
    859 O           8.2345    3.3745   12.6584 O.3   144  UNL144     -0.3982
    860 C           7.9305    3.1075   14.0152 C.3   144  UNL144      0.0330
    861 H           8.8452    2.8353   14.5477 H     144  UNL144      0.0521
    862 H           7.2059    2.2917   14.0733 H     144  UNL144      0.0521
    863 H           7.5020    4.0054   14.4666 H     144  UNL144      0.0521
    864 H           8.6126    2.5603   12.2848 H     144  UNL144      0.2090
    865 O           7.3886    3.1371   16.6351 O.3   145  UNL145     -0.3982
    866 C           5.9728    3.1371   16.6351 C.3   145  UNL145      0.0330
    867 H           5.6075    2.3681   17.3203 H     145  UNL145      0.0521
    868 H           5.6076    2.9424   15.6238 H     145  UNL145      0.0521
    869 H           5.6175    4.1157   16.9663 H     145  UNL145      0.0521
    870 H           7.6743    2.2567   16.3371 H     145  UNL145      0.2090
    871 O           9.2907    5.1545    0.0612 O.3   146  UNL146     -0.3982
    872 C           7.8749    5.1545    0.0612 C.3   146  UNL146      0.0330
    873 H           7.5096    4.3855    0.7464 H     146  UNL146      0.0521
    874 H           7.5097    4.9598   -0.9501 H     146  UNL146      0.0521
    875 H           7.5196    6.1331    0.3924 H     146  UNL146      0.0521
    876 H           9.5764    4.2741   -0.2368 H     146  UNL146      0.2090
    877 O           8.2727    5.5053    2.9137 O.3   147  UNL147     -0.3982
    878 C           7.9687    4.9239    1.6590 C.3   147  UNL147      0.0330
    879 H           8.2904    3.8795    1.6528 H     147  UNL147      0.0521
    880 H           8.4781    5.4779    0.8668 H     147  UNL147      0.0521
    881 H           6.8893    4.9714    1.4976 H     147  UNL147      0.0521
    882 H           9.2366    5.4486    3.0287 H     147  UNL147      0.2090
    883 O           9.2423    5.1787    3.9335 O.3   148  UNL148     -0.3982
    884 C           7.8265    5.1787    3.9335 C.3   148  UNL148      0.0330
    885 H           7.4612    4.4097    4.6187 H     148  UNL148      0.0521
    886 H           7.4613    4.9840    2.9222 H     148  UNL148      0.0521
    887 H           7.4712    6.1573    4.2647 H     148  UNL148      0.0521
    888 H           9.5280    4.2983    3.6355 H     148  UNL148      0.2090
    889 O           9.2665    5.1787    5.8818 O.3   149  UNL149     -0.3982
    890 C           7.8507    5.1787    5.8818 C.3   149  UNL149      0.0330
    891 H           7.4854    4.4097    6.5670 H     149  UNL149      0.0521
    892 H           7.4855    4.9840    4.8705 H     149  UNL149      0.0521
    893 H           7.4954    6.1573    6.2130 H     149  UNL149      0.0521
    894 H           9.5522    4.2983    5.5838 H     149  UNL149      0.2090
    895 O           8.7317    5.1787    6.8492 O.3   150  UNL150     -0.3982
    896 C           8.0757    5.1787    8.1039 C.3   150  UNL150      0.0330
    897 H           8.5136    4.4097    8.7451 H     150  UNL150      0.0521
    898 H           7.0103    4.9840    7.9589 H     150  UNL150      0.0521
    899 H           8.2045    6.1573    8.5722 H     150  UNL150      0.0521
    900 H           8.6000    4.2983    6.4580 H     150  UNL150      0.2090
    901 O           8.8808    5.2220    8.9108 O.3   151  UNL151     -0.3982
    902 C           7.8870    5.1423    9.9159 C.3   151  UNL151      0.0330
    903 H           8.3586    5.1901   10.9006 H     151  UNL151      0.0521
    904 H           7.3346    4.2055    9.8099 H     151  UNL151      0.0521
    905 H           7.1989    5.9833    9.8027 H     151  UNL151      0.0521
    906 H           9.4761    4.4634    9.0368 H     151  UNL151      0.2090
    907 O           9.2665    5.1787   11.7265 O.3   152  UNL152     -0.3982
    908 C           7.8507    5.1787   11.7265 C.3   152  UNL152      0.0330
    909 H           7.4854    4.4097   12.4117 H     152  UNL152      0.0521
    910 H           7.4855    4.9840   10.7152 H     152  UNL152      0.0521
    911 H           7.4954    6.1573   12.0577 H     152  UNL152      0.0521
    912 H           9.5522    4.2983   11.4285 H     152  UNL152      0.2090
    913 O           8.7317    5.1787   12.6940 O.3   153  UNL153     -0.3982
    914 C           8.0757    5.1787   13.9486 C.3   153  UNL153      0.0330
    915 H           8.5136    4.4097   14.5898 H     153  UNL153      0.0521
    916 H           7.0103    4.9840   13.8036 H     153  UNL153      0.0521
    917 H           8.2045    6.1573   14.4169 H     153  UNL153      0.0521
    918 H           8.6000    4.2983   12.3027 H     153  UNL153      0.2090
    919 O           7.5607    4.6785   14.7676 O.3   154  UNL154     -0.3982
    920 C           8.5085    4.9880   15.7728 C.3   154  UNL154      0.0330
    921 H           8.0611    4.8314   16.7575 H     154  UNL154      0.0521
    922 H           8.8269    6.0279   15.6667 H     154  UNL154      0.0521
    923 H           9.3739    4.3309   15.6595 H     154  UNL154      0.0521
    924 H           6.8048    5.2771   14.8936 H     154  UNL154      0.2090
    925 O          11.5723   -1.1146    2.0747 O.3   155  UNL155     -0.3982
    926 C          10.1565   -1.1146    2.0747 C.3   155  UNL155      0.0330
    927 H           9.7912   -1.9177    1.4298 H     155  UNL155      0.0521
    928 H           9.7913   -0.1495    1.7152 H     155  UNL155      0.0521
    929 H           9.8012   -1.2792    3.0946 H     155  UNL155      0.0521
    930 H          11.8580   -0.9665    1.1571 H     155  UNL155      0.2090
    931 O          11.0834   -1.0518    2.9865 O.3   156  UNL156     -0.3982
    932 C          10.2898   -0.8963    4.1485 C.3   156  UNL156      0.0330
    933 H          10.9009   -1.0802    5.0356 H     156  UNL156      0.0521
    934 H           9.4539   -1.5993    4.1167 H     156  UNL156      0.0521
    935 H           9.9030    0.1250    4.1806 H     156  UNL156      0.0521
    936 H          11.4123   -1.9669    2.9855 H     156  UNL156      0.2090
    937 O          11.1013   -0.9700    6.8762 O.3   157  UNL157     -0.3982
    938 C          10.4453   -0.9700    8.1309 C.3   157  UNL157      0.0330
    939 H          10.5228   -1.9616    8.5837 H     157  UNL157      0.0521
    940 H           9.3950   -0.7015    7.9938 H     157  UNL157      0.0521
    941 H          10.9247   -0.2358    8.7825 H     157  UNL157      0.0521
    942 H          10.6542   -1.6306    6.3201 H     157  UNL157      0.2090
    943 O          11.5844   -0.9477    9.8078 O.3   158  UNL158     -0.3982
    944 C          10.1686   -0.9477    9.8078 C.3   158  UNL158      0.0330
    945 H           9.8033   -1.8449   10.3137 H     158  UNL158      0.0521
    946 H           9.8034   -0.9228    8.7783 H     158  UNL158      0.0521
    947 H           9.8133   -0.0620   10.3397 H     158  UNL158      0.0521
    948 H          11.8701   -1.7445    9.3293 H     158  UNL158      0.2090
    949 O          11.5602   -1.1134   13.5175 O.3   159  UNL159     -0.3982
    950 C          10.1444   -1.1134   13.5175 C.3   159  UNL159      0.0330
    951 H           9.7791   -0.1042   13.7235 H     159  UNL159      0.0521
    952 H           9.7792   -1.8071   14.2787 H     159  UNL159      0.0521
    953 H           9.7891   -1.4337   12.5352 H     159  UNL159      0.0521
    954 H          11.8459   -0.8252   14.4011 H     159  UNL159      0.2090
    955 O          10.9114    1.2705    0.9139 O.3   160  UNL160     -0.3982
    956 C          10.2554    0.9728   -0.3049 C.3   160  UNL160      0.0330
    957 H           9.8393   -0.0367   -0.2587 H     160  UNL160      0.0521
    958 H          10.9672    1.0475   -1.1306 H     160  UNL160      0.0521
    959 H           9.4467    1.6912   -0.4579 H     160  UNL160      0.0521
    960 H          11.6233    0.6170    1.0222 H     160  UNL160      0.2090
    961 O          11.0482    1.8350    1.5866 O.3   161  UNL161     -0.3982
    962 C          10.3922    0.6163    1.8843 C.3   161  UNL161      0.0330
    963 H           9.3286    0.8049    2.0503 H     161  UNL161      0.0521
    964 H          10.8377    0.1702    2.7768 H     161  UNL161      0.0521
    965 H          10.5114   -0.0669    1.0401 H     161  UNL161      0.0521
    966 H          10.9253    2.4204    2.3532 H     161  UNL161      0.2090
    967 O          10.5317    1.9389    3.4534 O.3   162  UNL162     -0.3982
    968 C          10.3775    0.6036    3.8978 C.3   162  UNL162      0.0330
    969 H           9.9448    0.6002    4.9013 H     162  UNL162      0.0521
    970 H          11.3509    0.1072    3.9076 H     162  UNL162      0.0521
    971 H           9.7089    0.0762    3.2133 H     162  UNL162      0.0521
    972 H          11.1295    2.3813    4.0799 H     162  UNL162      0.2090
    973 O          11.1507    0.5460    5.0173 O.3   163  UNL163     -0.3982
    974 C          10.4946    0.9682    6.1988 C.3   163  UNL163      0.0330
    975 H           9.4466    0.6602    6.1647 H     163  UNL163      0.0521
    976 H          10.5634    2.0552    6.2861 H     163  UNL163      0.0521
    977 H          10.9806    0.5042    7.0602 H     163  UNL163      0.0521
    978 H          10.6977    0.9735    4.2706 H     163  UNL163      0.2090
    979 O           9.1455    1.3286    6.9398 O.3   164  UNL164     -0.3982
    980 C           8.3542    1.0156    8.0714 C.3   164  UNL164      0.0330
    981 H           9.0042    0.7747    8.9163 H     164  UNL164      0.0521
    982 H           7.7079    0.1651    7.8411 H     164  UNL164      0.0521
    983 H           7.7375    1.8812    8.3241 H     164  UNL164      0.0521
    984 H           9.6814    0.5423    6.7396 H     164  UNL164      0.2090
    985 O          10.7139    1.9284    9.3481 O.3   165  UNL165     -0.3982
    986 C          10.4319    0.7013    9.9955 C.3   165  UNL165      0.0330
    987 H          11.1769   -0.0441    9.7061 H     165  UNL165      0.0521
    988 H           9.4323    0.3612    9.7142 H     165  UNL165      0.0521
    989 H          10.4720    0.8526   11.0767 H     165  UNL165      0.0521
    990 H          10.6710    1.7628    8.3908 H     165  UNL165      0.2090
    991 O          10.6967    1.4917   10.7338 O.3   166  UNL166     -0.3982
    992 C          10.3927    0.6292   11.8146 C.3   166  UNL166      0.0330
    993 H           9.5046    0.9954   12.3356 H     166  UNL166      0.0521
    994 H          11.2416    0.5915   12.5016 H     166  UNL166      0.0521
    995 H          10.1969   -0.3727   11.4255 H     166  UNL166      0.0521
    996 H          10.8656    2.3724   11.1098 H     166  UNL166      0.2090
    997 O          11.5829    1.0420   13.9139 O.3   167  UNL167     -0.3982
    998 C          10.1773    1.0019   13.7495 C.3   167  UNL167      0.0330
    999 H           9.8917    0.0594   13.2756 H     167  UNL167      0.0521
   1000 H           9.8577    1.8444   13.1314 H     167  UNL167      0.0521
   1001 H           9.7026    1.0722   14.7310 H     167  UNL167      0.0521
   1002 H          11.9763    0.9778   13.0269 H     167  UNL167      0.2090
   1003 O           9.4007    2.5619   13.1357 O.3   168  UNL168     -0.3982
   1004 C           7.9849    2.5619   13.1357 C.3   168  UNL168      0.0330
   1005 H           7.6196    3.5711   13.3417 H     168  UNL168      0.0521
   1006 H           7.6197    1.8682   13.8969 H     168  UNL168      0.0521
   1007 H           7.6296    2.2416   12.1535 H     168  UNL168      0.0521
   1008 H           9.6864    2.8501   14.0194 H     168  UNL168      0.2090
   1009 O          11.0601    3.7638    0.5853 O.3   169  UNL169     -0.3982
   1010 C          10.4901    2.6451   -0.0689 C.3   169  UNL169      0.0330
   1011 H          10.6258    2.7450   -1.1487 H     169  UNL169      0.0521
   1012 H           9.4258    2.5847    0.1712 H     169  UNL169      0.0521
   1013 H          10.9913    1.7379    0.2767 H     169  UNL169      0.0521
   1014 H          10.5954    4.5531    0.2587 H     169  UNL169      0.2090
   1015 O          10.8872    3.0890    2.9165 O.3   170  UNL170     -0.3982
   1016 C          10.2312    3.0890    1.6618 C.3   170  UNL170      0.0330
   1017 H           9.8151    2.0974    1.4672 H     170  UNL170      0.0521
   1018 H          10.9430    3.3575    0.8775 H     170  UNL170      0.0521
   1019 H           9.4225    3.8232    1.6838 H     170  UNL170      0.0521
   1020 H          11.5991    2.4284    2.8666 H     170  UNL170      0.2090
   1021 O          11.6207    2.8427    3.8594 O.3   171  UNL171     -0.3982
   1022 C          10.2049    2.8427    3.8594 C.3   171  UNL171      0.0330
   1023 H           9.8396    3.4928    3.0606 H     171  UNL171      0.0521
   1024 H           9.8397    3.1958    4.8269 H     171  UNL171      0.0521
   1025 H           9.8496    1.8238    3.6882 H     171  UNL171      0.0521
   1026 H          11.9064    3.7593    4.0136 H     171  UNL171      0.2090
   1027 O          11.5965    2.9416    5.9828 O.3   172  UNL172     -0.3982
   1028 C          10.1807    2.9416    5.9828 C.3   172  UNL172      0.0330
   1029 H           9.8154    2.1507    5.3229 H     172  UNL172      0.0521
   1030 H           9.8155    3.9132    5.6415 H     172  UNL172      0.0521
   1031 H           9.8254    2.7579    6.9995 H     172  UNL172      0.0521
   1032 H          11.8822    3.1069    5.0682 H     172  UNL172      0.2090
   1033 O          11.5844    2.9565    7.9315 O.3   173  UNL173     -0.3982
   1034 C          10.1686    2.9565    7.9315 C.3   173  UNL173      0.0330
   1035 H           9.8033    2.1534    7.2866 H     173  UNL173      0.0521
   1036 H           9.8034    3.9216    7.5721 H     173  UNL173      0.0521
   1037 H           9.8133    2.7919    8.9515 H     173  UNL173      0.0521
   1038 H          11.8701    3.1046    7.0139 H     173  UNL173      0.2090
   1039 O           9.4007    2.8553    9.8642 O.3   174  UNL174     -0.3982
   1040 C           7.9849    2.8553    9.8642 C.3   174  UNL174      0.0330
   1041 H           7.6196    2.7666    8.8380 H     174  UNL174      0.0521
   1042 H           7.6197    3.7820   10.3134 H     174  UNL174      0.0521
   1043 H           7.6296    2.0043   10.4500 H     174  UNL174      0.0521
   1044 H           9.6864    3.6209    9.3372 H     174  UNL174      0.2090
   1045 O          10.7209    3.2875   10.6560 O.3   175  UNL175     -0.3982
   1046 C          10.4169    2.7061   11.9106 C.3   175  UNL175      0.0330
   1047 H           9.5288    3.1855   12.3298 H     175  UNL175      0.0521
   1048 H          11.2658    2.8325   12.5870 H     175  UNL175      0.0521
   1049 H          10.2211    1.6405   11.7704 H     175  UNL175      0.0521
   1050 H          10.8898    4.2323   10.8123 H     175  UNL175      0.2090
   1051 O          11.6328    2.9577   13.5054 O.3   176  UNL176     -0.3982
   1052 C          10.2170    2.9577   13.5054 C.3   176  UNL176      0.0330
   1053 H           9.8517    3.9669   13.7114 H     176  UNL176      0.0521
   1054 H           9.8518    2.2640   14.2666 H     176  UNL176      0.0521
   1055 H           9.8617    2.6374   12.5231 H     176  UNL176      0.0521
   1056 H          11.9185    3.2459   14.3890 H     176  UNL176      0.2090
   1057 O          10.7298    3.3334   16.6032 O.3   177  UNL177     -0.3982
   1058 C          10.4258    3.0664   15.2465 C.3   177  UNL177      0.0330
   1059 H           9.5034    2.4834   15.1867 H     177  UNL177      0.0521
   1060 H          11.2497    2.5126   14.7898 H     177  UNL177      0.0521
   1061 H          10.2902    4.0138   14.7196 H     177  UNL177      0.0521
   1062 H          10.8445    2.4747   17.0447 H     177  UNL177      0.2090
   1063 O          11.5844    5.1787    0.0370 O.3   178  UNL178     -0.3982
   1064 C          10.1686    5.1787    0.0370 C.3   178  UNL178      0.0330
   1065 H           9.8033    4.4097    0.7222 H     178  UNL178      0.0521
   1066 H           9.8034    4.9840   -0.9743 H     178  UNL178      0.0521
   1067 H           9.8133    6.1573    0.3682 H     178  UNL178      0.0521
   1068 H          11.8701    4.2983   -0.2610 H     178  UNL178      0.2090
   1069 O          11.0496    5.1787    1.0045 O.3   179  UNL179     -0.3982
   1070 C          10.3936    5.1787    2.2591 C.3   179  UNL179      0.0330
   1071 H          10.8315    4.4097    2.9003 H     179  UNL179      0.0521
   1072 H           9.3282    4.9840    2.1141 H     179  UNL179      0.0521
   1073 H          10.5224    6.1573    2.7274 H     179  UNL179      0.0521
   1074 H          10.9179    4.2983    0.6132 H     179  UNL179      0.2090
   1075 O          11.5844    5.1787    3.9335 O.3   180  UNL180     -0.3982
   1076 C          10.1686    5.1787    3.9335 C.3   180  UNL180      0.0330
   1077 H           9.8033    4.4097    4.6187 H     180  UNL180      0.0521
   1078 H           9.8034    4.9840    2.9222 H     180  UNL180      0.0521
   1079 H           9.8133    6.1573    4.2647 H     180  UNL180      0.0521
   1080 H          11.8701    4.2983    3.6355 H     180  UNL180      0.2090
   1081 O          11.5602    5.2029    5.8576 O.3   181  UNL181     -0.3982
   1082 C          10.1444    5.2029    5.8576 C.3   181  UNL181      0.0330
   1083 H           9.7791    4.4339    6.5428 H     181  UNL181      0.0521
   1084 H           9.7792    5.0082    4.8463 H     181  UNL181      0.0521
   1085 H           9.7891    6.1815    6.1888 H     181  UNL181      0.0521
   1086 H          11.8459    4.3225    5.5596 H     181  UNL181      0.2090
   1087 O          11.0496    5.9738    7.6856 O.3   182  UNL182     -0.3982
   1088 C          10.3936    4.7558    7.9865 C.3   182  UNL182      0.0330
   1089 H          10.8315    3.9488    7.3938 H     182  UNL182      0.0521
   1090 H           9.3282    4.8498    7.7627 H     182  UNL182      0.0521
   1091 H          10.5224    4.5359    9.0489 H     182  UNL182      0.0521
   1092 H          10.9179    6.1425    6.7370 H     182  UNL182      0.2090
   1093 O          11.2615    5.6723    9.2832 O.3   183  UNL183     -0.3982
   1094 C          10.2215    5.0731   10.0340 C.3   183  UNL183      0.0330
   1095 H          10.3257    3.9857    9.9993 H     183  UNL183      0.0521
   1096 H           9.2547    5.3705    9.6209 H     183  UNL183      0.0521
   1097 H          10.2917    5.4107   11.0707 H     183  UNL183      0.0521
   1098 H          11.1734    5.3542    8.3685 H     183  UNL183      0.2090
   1099 O          11.5602    5.1666   11.7628 O.3   184  UNL184     -0.3982
   1100 C          10.1444    5.1666   11.7628 C.3   184  UNL184      0.0330
   1101 H           9.7791    4.3976   12.4480 H     184  UNL184      0.0521
   1102 H           9.7792    4.9719   10.7515 H     184  UNL184      0.0521
   1103 H           9.7891    6.1452   12.0940 H     184  UNL184      0.0521
   1104 H          11.8459    4.2862   11.4648 H     184  UNL184      0.2090
   1105 O          11.0496    4.3090   14.2286 O.3   185  UNL185     -0.3982
   1106 C          10.3936    5.1401   13.2887 C.3   185  UNL185      0.0330
   1107 H          10.8315    6.1409   13.3177 H     185  UNL185      0.0521
   1108 H           9.3282    5.1899   13.5262 H     185  UNL185      0.0521
   1109 H          10.5224    4.7172   12.2896 H     185  UNL185      0.0521
   1110 H          10.9179    4.7094   15.1049 H     185  UNL185      0.2090
   1111 O          11.5844    5.1666   15.6351 O.3   186  UNL186     -0.3982
   1112 C          10.1686    5.1666   15.6351 C.3   186  UNL186      0.0330
   1113 H           9.8033    4.3976   16.3203 H     186  UNL186      0.0521
   1114 H           9.8034    4.9719   14.6238 H     186  UNL186      0.0521
   1115 H           9.8133    6.1452   15.9663 H     186  UNL186      0.0521
   1116 H          11.8701    4.2862   15.3371 H     186  UNL186      0.2090
   1117 O          12.2065   -1.2832    6.8989 O.3   187  UNL187     -0.3982
   1118 C          12.8932   -1.1793    8.1326 C.3   187  UNL187      0.0330
   1119 H          12.7437   -0.1808    8.5509 H     187  UNL187      0.0521
   1120 H          13.9585   -1.3639    7.9743 H     187  UNL187      0.0521
   1121 H          12.4953   -1.9252    8.8246 H     187  UNL187      0.0521
   1122 H          12.5810   -0.6097    6.3058 H     187  UNL187      0.2090
   1123 O          13.8818   -0.9173    9.9321 O.3   188  UNL188     -0.3982
   1124 C          12.4762   -0.9575    9.7678 C.3   188  UNL188      0.0330
   1125 H          12.0802   -1.8655   10.2293 H     188  UNL188      0.0521
   1126 H          12.2324   -0.9412    8.7027 H     188  UNL188      0.0521
   1127 H          12.0365   -0.0831   10.2533 H     188  UNL188      0.0521
   1128 H          14.2436   -1.7050    9.4914 H     188  UNL188      0.2090
   1129 O          13.8902   -1.1376   13.4570 O.3   189  UNL189     -0.3982
   1130 C          12.4744   -1.1376   13.4570 C.3   189  UNL189      0.0330
   1131 H          12.1091   -0.1284   13.6630 H     189  UNL189      0.0521
   1132 H          12.1092   -1.8313   14.2182 H     189  UNL189      0.0521
   1133 H          12.1191   -1.4579   12.4747 H     189  UNL189      0.0521
   1134 H          14.1759   -0.8494   14.3406 H     189  UNL189      0.2090
   1135 O          13.9265   -0.8785   15.6396 O.3   190  UNL190     -0.3982
   1136 C          12.5107   -0.8785   15.6396 C.3   190  UNL190      0.0330
   1137 H          12.1454   -1.4841   16.4727 H     190  UNL190      0.0521
   1138 H          12.1455   -1.2840   14.6929 H     190  UNL190      0.0521
   1139 H          12.1554    0.1481   15.7550 H     190  UNL190      0.0521
   1140 H          14.2122   -1.8022   15.5358 H     190  UNL190      0.2090
   1141 O          13.2824   -0.0317    0.0914 O.3   191  UNL191     -0.3982
   1142 C          12.6264    1.1871   -0.2064 C.3   191  UNL191      0.0330
   1143 H          13.3514    2.0047   -0.1940 H     191  UNL191      0.0521
   1144 H          11.8424    1.3699    0.5326 H     191  UNL191      0.0521
   1145 H          12.1779    1.1157   -1.2000 H     191  UNL191      0.0521
   1146 H          13.6701    0.0617    0.9782 H     191  UNL191      0.2090
   1147 O          13.4192    1.2711    1.0830 O.3   192  UNL192     -0.3982
   1148 C          12.7632    0.9734    2.3018 C.3   192  UNL192      0.0330
   1149 H          12.8407   -0.0973    2.5064 H     192  UNL192      0.0521
   1150 H          11.7129    1.2668    2.2324 H     192  UNL192      0.0521
   1151 H          13.2426    1.5320    3.1091 H     192  UNL192      0.0521
   1152 H          12.9721    0.7614    0.3860 H     192  UNL192      0.2090
   1153 O          13.8781    1.0067    3.9902 O.3   193  UNL193     -0.3982
   1154 C          12.4623    1.0067    3.9902 C.3   193  UNL193      0.0330
   1155 H          12.0970   -0.0226    4.0255 H     193  UNL193      0.0521
   1156 H          12.0971    1.5035    3.0881 H     193  UNL193      0.0521
   1157 H          12.1070    1.5475    4.8705 H     193  UNL193      0.0521
   1158 H          14.1638    0.5203    3.1983 H     193  UNL193      0.2090
   1159 O          13.9023    0.8831    5.7156 O.3   194  UNL194     -0.3982
   1160 C          12.4865    0.8831    5.7156 C.3   194  UNL194      0.0330
   1161 H          12.1212    1.9123    5.6763 H     194  UNL194      0.0521
   1162 H          12.1213    0.3899    6.6197 H     194  UNL194      0.0521
   1163 H          12.1312    0.3389    4.8374 H     194  UNL194      0.0521
   1164 H          14.1880    1.3727    6.5057 H     194  UNL194      0.2090
   1165 O          11.0987    0.0491    7.4209 O.3   195  UNL195     -0.3982
   1166 C          10.4427    1.2679    7.7187 C.3   195  UNL195      0.0330
   1167 H          11.1677    1.9878    8.1066 H     195  UNL195      0.0521
   1168 H           9.6587    1.0894    8.4586 H     195  UNL195      0.0521
   1169 H           9.9942    1.6627    6.8040 H     195  UNL195      0.0521
   1170 H          11.4864   -0.2768    8.2510 H     195  UNL195      0.2090
   1171 O          13.7094    1.5023    9.3960 O.3   196  UNL196     -0.3982
   1172 C          12.6765    0.7214    9.9686 C.3   196  UNL196      0.0330
   1173 H          12.2815    0.0315    9.2187 H     196  UNL196      0.0521
   1174 H          11.8811    1.3771   10.3309 H     196  UNL196      0.0521
   1175 H          13.0851    0.1509   10.8060 H     196  UNL196      0.0521
   1176 H          13.3171    1.9968    8.6564 H     196  UNL196      0.2090
   1177 O          12.1567    0.2353   11.1464 O.3   197  UNL197     -0.3982
   1178 C          12.8735    1.2657   11.8014 C.3   197  UNL197      0.0330
   1179 H          13.9282    1.2129   11.5199 H     197  UNL197      0.0521
   1180 H          12.7680    1.1532   12.8832 H     197  UNL197      0.0521
   1181 H          12.4651    2.2319   11.4963 H     197  UNL197      0.0521
   1182 H          12.5413   -0.6093   11.4367 H     197  UNL197      0.2090
   1183 O          13.9144    0.8831   13.5086 O.3   198  UNL198     -0.3982
   1184 C          12.4986    0.8831   13.5086 C.3   198  UNL198      0.0330
   1185 H          12.1333    1.9123   13.4693 H     198  UNL198      0.0521
   1186 H          12.1334    0.3899   14.4127 H     198  UNL198      0.0521
   1187 H          12.1433    0.3389   12.6304 H     198  UNL198      0.0521
   1188 H          14.2001    1.3727   14.2987 H     198  UNL198      0.2090
   1189 O          11.8044    1.0734   16.3711 O.3   199  UNL199     -0.3982
   1190 C          10.3886    1.0734   16.3711 C.3   199  UNL199      0.0330
   1191 H          10.0233    1.3243   17.3700 H     199  UNL199      0.0521
   1192 H          10.0234    0.0870   16.0750 H     199  UNL199      0.0521
   1193 H          10.0333    1.8204   15.6574 H     199  UNL199      0.0521
   1194 H          12.0901    0.4014   17.0132 H     199  UNL199      0.2090
   1195 O          13.1031    4.0684    0.1292 O.3   200  UNL200     -0.3982
   1196 C          12.6465    2.7638   -0.1777 C.3   200  UNL200      0.0330
   1197 H          12.3058    2.2716    0.7366 H     200  UNL200      0.0521
   1198 H          13.4580    2.1904   -0.6323 H     200  UNL200      0.0521
   1199 H          11.8146    2.8351   -0.8823 H     200  UNL200      0.0521
   1200 H          13.8406    3.9729    0.7557 H     200  UNL200      0.2090
   1201 O          13.8781    3.1355    1.9906 O.3   201  UNL201     -0.3982
   1202 C          12.4623    3.1355    1.9906 C.3   201  UNL201      0.0330
   1203 H          12.0970    2.2383    2.4965 H     201  UNL201      0.0521
   1204 H          12.0971    3.1604    0.9611 H     201  UNL201      0.0521
   1205 H          12.1070    4.0212    2.5225 H     201  UNL201      0.0521
   1206 H          14.1638    2.3387    1.5121 H     201  UNL201      0.2090
   1207 O          13.9265    3.0512    4.0040 O.3   202  UNL202     -0.3982
   1208 C          12.5107    3.0512    4.0040 C.3   202  UNL202      0.0330
   1209 H          12.1454    2.0334    4.1620 H     202  UNL202      0.0521
   1210 H          12.1455    3.4366    3.0490 H     202  UNL202      0.0521
   1211 H          12.1554    3.6933    4.8133 H     202  UNL202      0.0521
   1212 H          14.2122    2.4735    3.2758 H     202  UNL202      0.2090
   1213 O          13.7466    3.0404    5.3139 O.3   203  UNL203     -0.3982
   1214 C          12.4470    2.7996    5.8212 C.3   203  UNL203      0.0330
   1215 H          11.9106    3.7471    5.9164 H     203  UNL203      0.0521
   1216 H          12.5201    2.3106    6.7956 H     203  UNL203      0.0521
   1217 H          11.9102    2.1477    5.1282 H     203  UNL203      0.0521
   1218 H          14.1984    3.6212    5.9496 H     203  UNL203      0.2090
   1219 O          13.4768    3.1939    8.6545 O.3   204  UNL204     -0.3982
   1220 C          12.8207    2.8961    7.4358 C.3   204  UNL204      0.0330
   1221 H          12.4689    3.8223    6.9746 H     204  UNL204      0.0521
   1222 H          11.9769    2.2292    7.6286 H     204  UNL204      0.0521
   1223 H          13.5265    2.4023    6.7638 H     204  UNL204      0.0521
   1224 H          12.8261    3.6310    9.2299 H     204  UNL204      0.2090
   1225 O          11.8044    3.0890    9.8608 O.3   205  UNL205     -0.3982
   1226 C          10.3886    3.0890    9.8608 C.3   205  UNL205      0.0330
   1227 H          10.0233    2.0974   10.1393 H     205  UNL205      0.0521
   1228 H          10.0234    3.3575    8.8665 H     205  UNL205      0.0521
   1229 H          10.0333    3.8232   10.5876 H     205  UNL205      0.0521
   1230 H          12.0901    2.4284    9.2069 H     205  UNL205      0.2090
   1231 O          13.8781    3.0648   11.7606 O.3   206  UNL206     -0.3982
   1232 C          12.4623    3.0648   11.7606 C.3   206  UNL206      0.0330
   1233 H          12.0970    2.0732   12.0392 H     206  UNL206      0.0521
   1234 H          12.0971    3.3333   10.7664 H     206  UNL206      0.0521
   1235 H          12.1070    3.7990   12.4875 H     206  UNL206      0.0521
   1236 H          14.1638    2.4042   11.1067 H     206  UNL206      0.2090
   1237 O          13.9023    2.9247   13.5086 O.3   207  UNL207     -0.3982
   1238 C          12.4865    2.9247   13.5086 C.3   207  UNL207      0.0330
   1239 H          12.1212    3.9539   13.4693 H     207  UNL207      0.0521
   1240 H          12.1213    2.4315   14.4127 H     207  UNL207      0.0521
   1241 H          12.1312    2.3805   12.6304 H     207  UNL207      0.0521
   1242 H          14.1880    3.4143   14.2987 H     207  UNL207      0.2090
   1243 O          13.4129    2.8674   14.6717 O.3   208  UNL208     -0.3982
   1244 C          12.7568    2.8674   15.9263 C.3   208  UNL208      0.0330
   1245 H          11.6782    2.7787   15.7746 H     208  UNL208      0.0521
   1246 H          12.9857    3.7941   16.4581 H     208  UNL208      0.0521
   1247 H          13.1113    2.0164   16.5126 H     208  UNL208      0.0521
   1248 H          13.0783    3.6330   14.1743 H     208  UNL208      0.2090
   1249 O          13.9023    5.1303    0.0612 O.3   209  UNL209     -0.3982
   1250 C          12.4865    5.1303    0.0612 C.3   209  UNL209      0.0330
   1251 H          12.1212    4.3613    0.7464 H     209  UNL209      0.0521
   1252 H          12.1213    4.9356   -0.9501 H     209  UNL209      0.0521
   1253 H          12.1312    6.1089    0.3924 H     209  UNL209      0.0521
   1254 H          14.1880    4.2499   -0.2368 H     209  UNL209      0.2090
   1255 O          13.2810    5.1787    2.9137 O.3   210  UNL210     -0.3982
   1256 C          12.6250    5.1787    1.6590 C.3   210  UNL210      0.0330
   1257 H          11.8485    4.4097    1.6528 H     210  UNL210      0.0521
   1258 H          13.3519    4.9840    0.8668 H     210  UNL210      0.0521
   1259 H          12.1668    6.1573    1.4976 H     210  UNL210      0.0521
   1260 H          13.6775    4.2983    3.0287 H     210  UNL210      0.2090
   1261 O          13.9023    5.1787    3.9335 O.3   211  UNL211     -0.3982
   1262 C          12.4865    5.1787    3.9335 C.3   211  UNL211      0.0330
   1263 H          12.1212    4.4097    4.6187 H     211  UNL211      0.0521
   1264 H          12.1213    4.9840    2.9222 H     211  UNL211      0.0521
   1265 H          12.1312    6.1573    4.2647 H     211  UNL211      0.0521
   1266 H          14.1880    4.2983    3.6355 H     211  UNL211      0.2090
   1267 O          13.8781    5.2029    5.8576 O.3   212  UNL212     -0.3982
   1268 C          12.4623    5.2029    5.8576 C.3   212  UNL212      0.0330
   1269 H          12.0970    4.4339    6.5428 H     212  UNL212      0.0521
   1270 H          12.0971    5.0082    4.8463 H     212  UNL212      0.0521
   1271 H          12.1070    6.1815    6.1888 H     212  UNL212      0.0521
   1272 H          14.1638    4.3225    5.5596 H     212  UNL212      0.2090
   1273 O          13.3675    5.1787    6.8492 O.3   213  UNL213     -0.3982
   1274 C          12.7115    5.1787    8.1039 C.3   213  UNL213      0.0330
   1275 H          13.1494    4.4097    8.7451 H     213  UNL213      0.0521
   1276 H          11.6461    4.9840    7.9589 H     213  UNL213      0.0521
   1277 H          12.8403    6.1573    8.5722 H     213  UNL213      0.0521
   1278 H          13.2358    4.2983    6.4580 H     213  UNL213      0.2090
   1279 O          12.3196    4.1807    9.2832 O.3   214  UNL214     -0.3982
   1280 C          12.9702    5.1894   10.0340 C.3   214  UNL214      0.0330
   1281 H          12.3801    6.1085    9.9993 H     214  UNL214      0.0521
   1282 H          13.9660    5.3672    9.6209 H     214  UNL214      0.0521
   1283 H          13.0623    4.8570   11.0707 H     214  UNL214      0.0521
   1284 H          12.2524    4.5038    8.3685 H     214  UNL214      0.2090
   1285 O          13.9023    5.2029   11.7265 O.3   215  UNL215     -0.3982
   1286 C          12.4865    5.2029   11.7265 C.3   215  UNL215      0.0330
   1287 H          12.1212    4.4339   12.4117 H     215  UNL215      0.0521
   1288 H          12.1213    5.0082   10.7152 H     215  UNL215      0.0521
   1289 H          12.1312    6.1815   12.0577 H     215  UNL215      0.0521
   1290 H          14.1880    4.3225   11.4285 H     215  UNL215      0.2090
   1291 O          13.3675    5.1787   12.6940 O.3   216  UNL216     -0.3982
   1292 C          12.7115    5.1787   13.9486 C.3   216  UNL216      0.0330
   1293 H          13.1494    4.4097   14.5898 H     216  UNL216      0.0521
   1294 H          11.6461    4.9840   13.8036 H     216  UNL216      0.0521
   1295 H          12.8403    6.1573   14.4169 H     216  UNL216      0.0521
   1296 H          13.2358    4.2983   12.3027 H     216  UNL216      0.2090
   1297 O          13.4642    4.1346   15.6351 O.3   217  UNL217     -0.3982
   1298 C          12.8082    5.3892   15.6351 C.3   217  UNL217      0.0330
   1299 H          11.9574    5.3566   16.3203 H     217  UNL217      0.0521
   1300 H          12.4664    5.6226   14.6238 H     217  UNL217      0.0521
   1301 H          13.5107    6.1575   15.9663 H     217  UNL217      0.0521
   1302 H          12.8164    3.4735   15.3371 H     217  UNL217      0.2090
   1303 O          14.2323   -0.9219    0.0491 O.3   218  UNL218     -0.3982
   1304 C          12.8165   -0.9219    0.0491 C.3   218  UNL218      0.0330
   1305 H          12.4512   -1.6909    0.7343 H     218  UNL218      0.0521
   1306 H          12.4513   -1.1166   -0.9622 H     218  UNL218      0.0521
   1307 H          12.4612    0.0567    0.3803 H     218  UNL218      0.0521
   1308 H          14.5180   -1.8023   -0.2489 H     218  UNL218      0.2090
   1309 O          15.5381   -1.3908    4.8759 O.3   219  UNL219     -0.3982
   1310 C          14.8820   -1.0931    6.0946 C.3   219  UNL219      0.0330
   1311 H          14.8953   -0.0132    6.2624 H     219  UNL219      0.0521
   1312 H          15.3874   -1.6064    6.9163 H     219  UNL219      0.0521
   1313 H          13.8470   -1.4375    6.0344 H     219  UNL219      0.0521
   1314 H          16.4535   -1.0738    4.9593 H     219  UNL219      0.2090
   1315 O          16.2298   -1.1134   13.6351 O.3   220  UNL220     -0.3982
   1316 C          14.8242   -1.1134   13.4659 C.3   220  UNL220      0.0330
   1317 H          14.4369   -0.1042   13.6268 H     220  UNL220      0.0521
   1318 H          14.3706   -1.8071   14.1780 H     220  UNL220      0.0521
   1319 H          14.5888   -1.4337   12.4483 H     220  UNL220      0.0521
   1320 H          16.4079   -0.8252   14.5466 H     220  UNL220      0.2090
   1321 O          14.5865    2.5562    0.2757 O.3   221  UNL221     -0.3982
   1322 C          13.1707    2.5562    0.2757 C.3   221  UNL221      0.0330
   1323 H          12.8054    2.2265   -0.7001 H     221  UNL221      0.0521
   1324 H          12.8055    3.5630    0.4922 H     221  UNL221      0.0521
   1325 H          12.8154    1.8685    1.0467 H     221  UNL221      0.0521
   1326 H          14.8722    3.1749   -0.4179 H     221  UNL221      0.2090
   1327 O          15.5714    1.8010    2.5426 O.3   222  UNL222     -0.3982
   1328 C          14.9154    0.8589    1.7140 C.3   222  UNL222      0.0330
   1329 H          14.4993    0.0579    2.3300 H     222  UNL222      0.0521
   1330 H          15.6272    0.4473    0.9944 H     222  UNL222      0.0521
   1331 H          14.1067    1.3603    1.1772 H     222  UNL222      0.0521
   1332 H          16.2833    1.3273    3.0057 H     222  UNL222      0.2090
   1333 O          15.7142    1.4328    4.7170 O.3   223  UNL223     -0.3982
   1334 C          14.9408    0.7087    3.7778 C.3   223  UNL223      0.0330
   1335 H          15.5694    0.4211    2.9314 H     223  UNL223      0.0521
   1336 H          14.1094    1.3287    3.4339 H     223  UNL223      0.0521
   1337 H          14.5476   -0.1900    4.2588 H     223  UNL223      0.0521
   1338 H          16.0493    2.2239    4.2618 H     223  UNL223      0.2090
   1339 O          16.1995    0.8525    5.6111 O.3   224  UNL224     -0.3982
   1340 C          14.7938    0.9920    5.7069 C.3   224  UNL224      0.0330
   1341 H          14.5494    1.9994    6.0527 H     224  UNL224      0.0521
   1342 H          14.3999    0.2498    6.4055 H     224  UNL224      0.0521
   1343 H          14.3528    0.8307    4.7205 H     224  UNL224      0.0521
   1344 H          16.5626    1.0009    6.5009 H     224  UNL224      0.2090
   1345 O          14.2323    1.1076    7.8421 O.3   225  UNL225     -0.3982
   1346 C          12.8165    1.1076    7.8421 C.3   225  UNL225      0.0330
   1347 H          12.4512    0.3386    8.5273 H     225  UNL225      0.0521
   1348 H          12.4513    0.9129    6.8308 H     225  UNL225      0.0521
   1349 H          12.4612    2.0862    8.1733 H     225  UNL225      0.0521
   1350 H          14.5180    0.2272    7.5441 H     225  UNL225      0.2090
   1351 O          15.2814    1.5154    8.8095 O.3   226  UNL226     -0.3982
   1352 C          15.0611    0.9563   10.0915 C.3   226  UNL226      0.0330
   1353 H          15.9697    0.4534   10.4317 H     226  UNL226      0.0521
   1354 H          14.2342    0.2437   10.0420 H     226  UNL226      0.0521
   1355 H          14.8075    1.7574   10.7897 H     226  UNL226      0.0521
   1356 H          15.5042    0.7812    8.2122 H     226  UNL226      0.2090
   1357 O          16.1839    0.9512   11.8038 O.3   227  UNL227     -0.3982
   1358 C          14.7681    0.9512   11.8038 C.3   227  UNL227      0.0330
   1359 H          14.4028    0.1481   11.1589 H     227  UNL227      0.0521
   1360 H          14.4029    1.9163   11.4444 H     227  UNL227      0.0521
   1361 H          14.4128    0.7866   12.8238 H     227  UNL227      0.0521
   1362 H          16.4696    1.0993   10.8862 H     227  UNL227      0.2090
   1363 O          16.2444    0.9162   13.7662 O.3   228  UNL228     -0.3982
   1364 C          14.8286    0.9162   13.7662 C.3   228  UNL228      0.0330
   1365 H          14.4633    0.2891   12.9492 H     228  UNL228      0.0521
   1366 H          14.4634    1.9390   13.6460 H     228  UNL228      0.0521
   1367 H          14.4733    0.5143   14.7180 H     228  UNL228      0.0521
   1368 H          16.5301    1.2778   12.9100 H     228  UNL228      0.2090
   1369 O          14.2425    1.4497   16.0351 O.3   229  UNL229     -0.3982
   1370 C          15.3976    0.7335   15.6384 C.3   229  UNL229      0.0330
   1371 H          16.2048    1.4361   15.4168 H     229  UNL229      0.0521
   1372 H          15.1695    0.1335   14.7542 H     229  UNL229      0.0521
   1373 H          15.7046    0.0746   16.4539 H     229  UNL229      0.0521
   1374 H          13.9939    2.0253   15.2919 H     229  UNL229      0.2090
   1375 O          16.2202    0.6807   -0.1519 O.3   230  UNL230     -0.3982
   1376 C          14.8044    0.6807   -0.1519 C.3   230  UNL230      0.0330
   1377 H          14.4391    1.5965    0.3195 H     230  UNL230      0.0521
   1378 H          14.4392   -0.1930    0.3933 H     230  UNL230      0.0521
   1379 H          14.4491    0.6381   -1.1841 H     230  UNL230      0.0521
   1380 H          16.5059    0.7191    0.7768 H     230  UNL230      0.2090
   1381 O          16.2117    3.2411    2.0194 O.3   231  UNL231     -0.3982
   1382 C          14.8060    3.0719    2.0194 C.3   231  UNL231      0.0330
   1383 H          14.5618    2.0438    2.2979 H     231  UNL231      0.0521
   1384 H          14.4113    3.2949    1.0251 H     231  UNL231      0.0521
   1385 H          14.3655    3.7584    2.7462 H     231  UNL231      0.0521
   1386 H          16.5743    2.6195    1.3655 H     231  UNL231      0.2090
   1387 O          16.1422    3.1591    4.3523 O.3   232  UNL232     -0.3982
   1388 C          14.8157    3.0794    3.8639 C.3   232  UNL232      0.0330
   1389 H          14.3483    2.1598    4.2246 H     232  UNL232      0.0521
   1390 H          14.8275    3.0905    2.7714 H     232  UNL232      0.0521
   1391 H          14.2505    3.9402    4.2288 H     232  UNL232      0.0521
   1392 H          16.6190    2.3828    4.0124 H     232  UNL232      0.2090
   1393 O          16.2067    2.6926    5.7425 O.3   233  UNL233     -0.3982
   1394 C          14.8010    2.8570    5.7826 C.3   233  UNL233      0.0330
   1395 H          14.5160    3.7160    5.1702 H     233  UNL233      0.0521
   1396 H          14.4806    3.0104    6.8160 H     233  UNL233      0.0521
   1397 H          14.3265    1.9562    5.3863 H     233  UNL233      0.0521
   1398 H          16.5999    3.5069    6.1001 H     233  UNL233      0.2090
   1399 O          15.2344    3.4133    8.8096 O.3   234  UNL234     -0.3982
   1400 C          14.9304    2.8319    7.5550 C.3   234  UNL234      0.0330
   1401 H          15.6163    2.0037    7.3603 H     234  UNL234      0.0521
   1402 H          15.0223    3.5872    6.7707 H     234  UNL234      0.0521
   1403 H          13.9050    2.4555    7.5769 H     234  UNL234      0.0521
   1404 H          16.1496    3.7380    8.7598 H     234  UNL234      0.2090
   1405 O          14.3181    2.8311    9.8642 O.3   235  UNL235     -0.3982
   1406 C          12.9023    2.8311    9.8642 C.3   235  UNL235      0.0330
   1407 H          12.5370    2.7424    8.8380 H     235  UNL235      0.0521
   1408 H          12.5371    3.7578   10.3134 H     235  UNL235      0.0521
   1409 H          12.5470    1.9801   10.4500 H     235  UNL235      0.0521
   1410 H          14.6038    3.5967    9.3372 H     235  UNL235      0.2090
   1411 O          15.1774    2.1424   12.3952 O.3   236  UNL236     -0.3982
   1412 C          15.3623    3.2286   11.5061 C.3   236  UNL236      0.0330
   1413 H          14.8738    4.1187   11.9103 H     236  UNL236      0.0521
   1414 H          14.9382    2.9784   10.5307 H     236  UNL236      0.0521
   1415 H          16.4323    3.4205   11.3973 H     236  UNL236      0.0521
   1416 H          14.2192    1.9958   12.4718 H     236  UNL236      0.2090
   1417 O          16.2323    2.9577   13.4933 O.3   237  UNL237     -0.3982
   1418 C          14.8165    2.9577   13.4933 C.3   237  UNL237      0.0330
   1419 H          14.4512    3.9669   13.6993 H     237  UNL237      0.0521
   1420 H          14.4513    2.2640   14.2545 H     237  UNL237      0.0521
   1421 H          14.4612    2.6374   12.5110 H     237  UNL237      0.0521
   1422 H          16.5180    3.2459   14.3769 H     237  UNL237      0.2090
   1423 O          15.7187    2.8674   14.6717 O.3   238  UNL238     -0.3982
   1424 C          15.0626    2.8674   15.9263 C.3   238  UNL238      0.0330
   1425 H          13.9840    2.7787   15.7746 H     238  UNL238      0.0521
   1426 H          15.2915    3.7941   16.4581 H     238  UNL238      0.0521
   1427 H          15.4171    2.0164   16.5126 H     238  UNL238      0.0521
   1428 H          15.3841    3.6330   14.1743 H     238  UNL238      0.2090
   1429 O          15.9010    4.9068    0.8574 O.3   239  UNL239     -0.3982
   1430 C          15.2924    5.2992   -0.3592 C.3   239  UNL239      0.0330
   1431 H          14.5856    6.1107   -0.1690 H     239  UNL239      0.0521
   1432 H          14.7728    4.4449   -0.7998 H     239  UNL239      0.0521
   1433 H          16.0663    5.6468   -1.0477 H     239  UNL239      0.0521
   1434 H          15.1903    4.6035    1.4476 H     239  UNL239      0.2090
   1435 O          16.2202    5.2029    1.9853 O.3   240  UNL240     -0.3982
   1436 C          14.8044    5.2029    1.9853 C.3   240  UNL240      0.0330
   1437 H          14.4391    4.4339    2.6705 H     240  UNL240      0.0521
   1438 H          14.4392    5.0082    0.9740 H     240  UNL240      0.0521
   1439 H          14.4491    6.1815    2.3165 H     240  UNL240      0.0521
   1440 H          16.5059    4.3225    1.6873 H     240  UNL240      0.2090
   1441 O          16.2202    5.2029    3.9335 O.3   241  UNL241     -0.3982
   1442 C          14.8044    5.2029    3.9335 C.3   241  UNL241      0.0330
   1443 H          14.4391    4.4339    4.6187 H     241  UNL241      0.0521
   1444 H          14.4392    5.0082    2.9222 H     241  UNL241      0.0521
   1445 H          14.4491    6.1815    4.2647 H     241  UNL241      0.0521
   1446 H          16.5059    4.3225    3.6355 H     241  UNL241      0.2090
   1447 O          16.2202    5.1787    5.8818 O.3   242  UNL242     -0.3982
   1448 C          14.8044    5.1787    5.8818 C.3   242  UNL242      0.0330
   1449 H          14.4391    4.4097    6.5670 H     242  UNL242      0.0521
   1450 H          14.4392    4.9840    4.8705 H     242  UNL242      0.0521
   1451 H          14.4491    6.1573    6.2130 H     242  UNL242      0.0521
   1452 H          16.5059    4.2983    5.5838 H     242  UNL242      0.2090
   1453 O          15.6854    4.3090    8.3838 O.3   243  UNL243     -0.3982
   1454 C          15.0294    5.1401    7.4439 C.3   243  UNL243      0.0330
   1455 H          15.4673    6.1409    7.4729 H     243  UNL243      0.0521
   1456 H          13.9640    5.1899    7.6815 H     243  UNL243      0.0521
   1457 H          15.1582    4.7172    6.4449 H     243  UNL243      0.0521
   1458 H          15.5537    4.7094    9.2601 H     243  UNL243      0.2090
   1459 O          15.0540    4.4987   10.6222 O.3   244  UNL244     -0.3982
   1460 C          14.9383    5.1820    9.3876 C.3   244  UNL244      0.0330
   1461 H          15.9073    5.1902    8.8825 H     244  UNL244      0.0521
   1462 H          14.6002    6.2055    9.5669 H     244  UNL244      0.0521
   1463 H          14.2080    4.6637    8.7618 H     244  UNL244      0.0521
   1464 H          15.7082    4.9814   11.1557 H     244  UNL244      0.2090
   1465 O          16.2202    5.1787   11.7507 O.3   245  UNL245     -0.3982
   1466 C          14.8044    5.1787   11.7507 C.3   245  UNL245      0.0330
   1467 H          14.4391    4.4097   12.4359 H     245  UNL245      0.0521
   1468 H          14.4392    4.9840   10.7394 H     245  UNL245      0.0521
   1469 H          14.4491    6.1573   12.0819 H     245  UNL245      0.0521
   1470 H          16.5059    4.2983   11.4527 H     245  UNL245      0.2090
   1471 O          15.4821    4.6973   14.6032 O.3   246  UNL246     -0.3982
   1472 C          15.1781    5.2786   13.3485 C.3   246  UNL246      0.0330
   1473 H          14.1368    5.6104   13.3423 H     246  UNL246      0.0521
   1474 H          15.3424    4.5442   12.5563 H     246  UNL246      0.0521
   1475 H          15.8330    6.1381   13.1871 H     246  UNL246      0.0521
   1476 H          14.8856    3.9380   14.7182 H     246  UNL246      0.2090
   1477 O          15.7821    4.1346   15.6351 O.3   247  UNL247     -0.3982
   1478 C          15.1261    5.3892   15.6351 C.3   247  UNL247      0.0330
   1479 H          14.2753    5.3566   16.3203 H     247  UNL247      0.0521
   1480 H          14.7843    5.6226   14.6238 H     247  UNL247      0.0521
   1481 H          15.8286    6.1575   15.9663 H     247  UNL247      0.0521
   1482 H          15.1343    3.4735   15.3371 H     247  UNL247      0.2090
   1483 O          17.7109   -0.8440    4.8367 O.3   248  UNL248     -0.3982
   1484 C          17.2131   -1.2164    6.1087 C.3   248  UNL248      0.0330
   1485 H          17.1553   -0.3341    6.7510 H     248  UNL248      0.0521
   1486 H          17.8743   -1.9628    6.5554 H     248  UNL248      0.0521
   1487 H          16.2145   -1.6429    5.9884 H     248  UNL248      0.0521
   1488 H          18.5974   -0.4693    4.9753 H     248  UNL248      0.2090
   1489 O          17.3232   -1.4558    8.7710 O.3   249  UNL249     -0.3982
   1490 C          17.6664   -0.9850    7.4806 C.3   249  UNL249      0.0330
   1491 H          17.3027    0.0380    7.3563 H     249  UNL249      0.0521
   1492 H          17.2212   -1.6358    6.7241 H     249  UNL249      0.0521
   1493 H          18.7537   -0.9982    7.3752 H     249  UNL249      0.0521
   1494 H          16.3531   -1.4327    8.8349 H     249  UNL249      0.2090
   1495 O          18.4833   -0.9720    0.4282 O.3   250  UNL250     -0.3982
   1496 C          17.2333   -0.8937   -0.2321 C.3   250  UNL250      0.0330
   1497 H          16.4370   -0.7727    0.5065 H     250  UNL250      0.0521
   1498 H          17.0700   -1.8041   -0.8139 H     250  UNL250      0.0521
   1499 H          17.2392   -0.0314   -0.9029 H     250  UNL250      0.0521
   1500 H          18.4480   -1.7459    1.0159 H     250  UNL250      0.2090
   1501 O          18.0550    0.3020    1.3223 O.3   251  UNL251     -0.3982
   1502 C          17.3990    1.3229    2.0517 C.3   251  UNL251      0.0330
   1503 H          17.4765    1.1149    3.1217 H     251  UNL251      0.0521
   1504 H          16.3487    1.3674    1.7535 H     251  UNL251      0.0521
   1505 H          17.8784    2.2799    1.8331 H     251  UNL251      0.0521
   1506 H          17.6079   -0.5345    1.5364 H     251  UNL251      0.2090
   1507 O          18.5723    0.9640    3.8482 O.3   252  UNL252     -0.3982
   1508 C          17.1768    0.7770    3.9961 C.3   252  UNL252      0.0330
   1509 H          16.7113    0.7052    3.0099 H     252  UNL252      0.0521
   1510 H          16.7524    1.6175    4.5507 H     252  UNL252      0.0521
   1511 H          16.9989   -0.1484    4.5488 H     252  UNL252      0.0521
   1512 H          18.6989    1.7921    3.3544 H     252  UNL252      0.2090
   1513 O          16.8075    1.8784    5.7235 O.3   253  UNL253     -0.3982
   1514 C          17.6999    0.7793    5.7253 C.3   253  UNL253      0.0330
   1515 H          17.1453   -0.1413    5.9232 H     253  UNL253      0.0521
   1516 H          18.4631    0.9297    6.4928 H     253  UNL253      0.0521
   1517 H          18.1798    0.7096    4.7462 H     253  UNL253      0.0521
   1518 H          16.3973    1.9147    6.6044 H     253  UNL253      0.2090
   1519 O          14.8602    0.8690    6.9782 O.3   254  UNL254     -0.3982
   1520 C          15.7728    1.2007    8.0086 C.3   254  UNL254      0.0330
   1521 H          16.7067    0.6531    7.8596 H     254  UNL254      0.0521
   1522 H          15.3382    0.9443    8.9778 H     254  UNL254      0.0521
   1523 H          15.9729    2.2742    7.9740 H     254  UNL254      0.0521
   1524 H          14.7020   -0.0888    7.0341 H     254  UNL254      0.2090
   1525 O          18.5381    0.8952    9.5758 O.3   255  UNL255     -0.3982
   1526 C          17.1223    0.8952    9.5758 C.3   255  UNL255      0.0330
   1527 H          16.7570    1.9244    9.5365 H     255  UNL255      0.0521
   1528 H          16.7571    0.4020   10.4799 H     255  UNL255      0.0521
   1529 H          16.7670    0.3510    8.6976 H     255  UNL255      0.0521
   1530 H          18.8238    1.3848   10.3659 H     255  UNL255      0.2090
   1531 O          17.8651    1.0716   12.6819 O.3   256  UNL256     -0.3982
   1532 C          17.2091    1.0716   11.4273 C.3   256  UNL256      0.0330
   1533 H          16.7930    0.0800   11.2326 H     256  UNL256      0.0521
   1534 H          17.9209    1.3401   10.6430 H     256  UNL256      0.0521
   1535 H          16.4004    1.8058   11.4492 H     256  UNL256      0.0521
   1536 H          18.5770    0.4110   12.6321 H     256  UNL256      0.2090
   1537 O          18.5502    0.9518   13.4862 O.3   257  UNL257     -0.3982
   1538 C          17.1344    0.9518   13.4862 C.3   257  UNL257      0.0330
   1539 H          16.7691    1.8833   13.9258 H     257  UNL257      0.0521
   1540 H          16.7692    0.0973   14.0610 H     257  UNL257      0.0521
   1541 H          16.7791    0.8737   12.4560 H     257  UNL257      0.0521
   1542 H          18.8359    1.0220   14.4130 H     257  UNL257      0.2090
   1543 O          17.3343    0.2725   14.7574 O.3   258  UNL258     -0.3982
   1544 C          17.5845    1.2986   15.7002 C.3   258  UNL258      0.0330
   1545 H          18.3038    0.9447   16.4430 H     258  UNL258      0.0521
   1546 H          16.6491    1.5814   16.1891 H     258  UNL258      0.0521
   1547 H          17.9980    2.1659   15.1801 H     258  UNL258      0.0521
   1548 H          16.9683   -0.4832   15.2479 H     258  UNL258      0.2090
   1549 O          16.0810    4.9186   -0.7800 O.3   259  UNL259     -0.3982
   1550 C          15.2897    4.9541    0.3935 C.3   259  UNL259      0.0330
   1551 H          14.9931    3.9380    0.6650 H     259  UNL259      0.0521
   1552 H          14.4037    5.5692    0.2181 H     259  UNL259      0.0521
   1553 H          15.8775    5.3890    1.2053 H     259  UNL259      0.0521
   1554 H          15.5332    4.5282   -1.4822 H     259  UNL259      0.2090
   1555 O          18.5865    2.9807    2.0626 O.3   260  UNL260     -0.3982
   1556 C          17.1707    2.9807    2.0626 C.3   260  UNL260      0.0330
   1557 H          16.8054    2.1776    1.4177 H     260  UNL260      0.0521
   1558 H          16.8055    3.9458    1.7031 H     260  UNL260      0.0521
   1559 H          16.8154    2.8161    3.0825 H     260  UNL260      0.0521
   1560 H          18.8722    3.1288    1.1450 H     260  UNL260      0.2090
   1561 O          18.5865    3.0362    4.0144 O.3   261  UNL261     -0.3982
   1562 C          17.1707    3.0362    4.0144 C.3   261  UNL261      0.0330
   1563 H          16.8054    2.0069    4.0497 H     261  UNL261      0.0521
   1564 H          16.8055    3.5330    3.1123 H     261  UNL261      0.0521
   1565 H          16.8154    3.5770    4.8947 H     261  UNL261      0.0521
   1566 H          18.8722    2.5498    3.2225 H     261  UNL261      0.2090
   1567 O          16.7939    3.1408    5.0597 O.3   262  UNL262     -0.3982
   1568 C          17.8497    3.0999    6.0021 C.3   262  UNL262      0.0330
   1569 H          18.2653    2.0899    6.0415 H     262  UNL262      0.0521
   1570 H          17.4724    3.3888    6.9861 H     262  UNL262      0.0521
   1571 H          18.6291    3.8004    5.6932 H     262  UNL262      0.0521
   1572 H          16.1181    2.5097    5.3603 H     262  UNL262      0.2090
   1573 O          16.6001    3.4602    7.3792 O.3   263  UNL263     -0.3982
   1574 C          17.7664    2.7518    7.7567 C.3   263  UNL263      0.0330
   1575 H          17.5954    2.2494    8.7120 H     263  UNL263      0.0521
   1576 H          18.6043    3.4478    7.8438 H     263  UNL263      0.0521
   1577 H          17.9928    2.0064    6.9908 H     263  UNL263      0.0521
   1578 H          16.4244    4.1139    8.0773 H     263  UNL263      0.2090
   1579 O          16.6602    2.9577    9.6089 O.3   264  UNL264     -0.3982
   1580 C          15.2444    2.9577    9.6089 C.3   264  UNL264      0.0330
   1581 H          14.8791    3.9669    9.8149 H     264  UNL264      0.0521
   1582 H          14.8792    2.2640   10.3701 H     264  UNL264      0.0521
   1583 H          14.8891    2.6374    8.6266 H     264  UNL264      0.0521
   1584 H          16.9459    3.2459   10.4925 H     264  UNL264      0.2090
   1585 O          17.8560    2.0028   11.3783 O.3   265  UNL265     -0.3982
   1586 C          17.1999    3.1842   11.8006 C.3   265  UNL265      0.0330
   1587 H          17.2132    3.9186   10.9913 H     265  UNL265      0.0521
   1588 H          17.7053    3.5876   12.6814 H     265  UNL265      0.0521
   1589 H          16.1649    2.9443   12.0550 H     265  UNL265      0.0521
   1590 H          18.7714    2.2469   11.1596 H     265  UNL265      0.2090
   1591 O          18.5502    2.9126   13.5086 O.3   266  UNL266     -0.3982
   1592 C          17.1344    2.9126   13.5086 C.3   266  UNL266      0.0330
   1593 H          16.7691    3.9418   13.4693 H     266  UNL266      0.0521
   1594 H          16.7692    2.4194   14.4127 H     266  UNL266      0.0521
   1595 H          16.7791    2.3684   12.6304 H     266  UNL266      0.0521
   1596 H          18.8359    3.4022   14.2987 H     266  UNL266      0.2090
   1597 O          17.9077    2.6350   16.5227 O.3   267  UNL267     -0.3982
   1598 C          17.2517    2.9327   15.3039 C.3   267  UNL267      0.0330
   1599 H          17.9918    3.0361   14.5065 H     267  UNL267      0.0521
   1600 H          16.6844    3.8603   15.4117 H     267  UNL267      0.0521
   1601 H          16.5679    2.1163   15.0598 H     267  UNL267      0.0521
   1602 H          18.5071    3.3766   16.7131 H     267  UNL267      0.2090
   1603 O          18.0154    5.1666   -0.9317 O.3   268  UNL268     -0.3982
   1604 C          17.3594    5.1666    0.3230 C.3   268  UNL268      0.0330
   1605 H          17.7973    4.3976    0.9642 H     268  UNL268      0.0521
   1606 H          16.2940    4.9719    0.1780 H     268  UNL268      0.0521
   1607 H          17.4882    6.1452    0.7913 H     268  UNL268      0.0521
   1608 H          17.8837    4.2862   -1.3229 H     268  UNL268      0.2090
   1609 O          18.5623    5.1424    1.9974 O.3   269  UNL269     -0.3982
   1610 C          17.1465    5.1424    1.9974 C.3   269  UNL269      0.0330
   1611 H          16.7812    4.3734    2.6826 H     269  UNL269      0.0521
   1612 H          16.7813    4.9477    0.9861 H     269  UNL269      0.0521
   1613 H          16.7912    6.1210    2.3286 H     269  UNL269      0.0521
   1614 H          18.8480    4.2620    1.6994 H     269  UNL269      0.2090
   1615 O          18.5623    5.1787    3.9698 O.3   270  UNL270     -0.3982
   1616 C          17.1465    5.1787    3.9698 C.3   270  UNL270      0.0330
   1617 H          16.7812    4.4097    4.6550 H     270  UNL270      0.0521
   1618 H          16.7813    4.9840    2.9585 H     270  UNL270      0.0521
   1619 H          16.7912    6.1573    4.3010 H     270  UNL270      0.0521
   1620 H          18.8480    4.2983    3.6718 H     270  UNL270      0.2090
   1621 O          18.5502    5.1666    5.8697 O.3   271  UNL271     -0.3982
   1622 C          17.1344    5.1666    5.8697 C.3   271  UNL271      0.0330
   1623 H          16.7691    4.3976    6.5549 H     271  UNL271      0.0521
   1624 H          16.7692    4.9719    4.8584 H     271  UNL271      0.0521
   1625 H          16.7791    6.1452    6.2009 H     271  UNL271      0.0521
   1626 H          18.8359    4.2862    5.5717 H     271  UNL271      0.2090
   1627 O          18.5262    5.2996    7.7298 O.3   272  UNL272     -0.3982
   1628 C          17.1306    5.1316    7.8990 C.3   272  UNL272      0.0330
   1629 H          16.9414    4.2573    8.5268 H     272  UNL272      0.0521
   1630 H          16.6574    5.0017    6.9227 H     272  UNL272      0.0521
   1631 H          16.7219    6.0211    8.3840 H     272  UNL272      0.0521
   1632 H          18.8605    4.4953    7.2975 H     272  UNL272      0.2090
   1633 O          17.2590    4.0142    9.3170 O.3   273  UNL273     -0.3982
   1634 C          17.6516    5.3271    9.6728 C.3   273  UNL273      0.0330
   1635 H          18.0746    5.3214   10.6805 H     273  UNL273      0.0521
   1636 H          16.7844    5.9908    9.6339 H     273  UNL273      0.0521
   1637 H          18.4069    5.6763    8.9649 H     273  UNL273      0.0521
   1638 H          16.5889    3.7316    9.9624 H     273  UNL273      0.2090
   1639 O          18.5744    5.1666   11.7386 O.3   274  UNL274     -0.3982
   1640 C          17.1586    5.1666   11.7386 C.3   274  UNL274      0.0330
   1641 H          16.7933    4.3976   12.4238 H     274  UNL274      0.0521
   1642 H          16.7934    4.9719   10.7273 H     274  UNL274      0.0521
   1643 H          16.8033    6.1452   12.0698 H     274  UNL274      0.0521
   1644 H          18.8601    4.2862   11.4406 H     274  UNL274      0.2090
   1645 O          18.0033    5.1545   12.7061 O.3   275  UNL275     -0.3982
   1646 C          17.3473    5.1545   13.9607 C.3   275  UNL275      0.0330
   1647 H          17.7852    4.3855   14.6019 H     275  UNL275      0.0521
   1648 H          16.2819    4.9598   13.8157 H     275  UNL275      0.0521
   1649 H          17.4761    6.1331   14.4290 H     275  UNL275      0.0521
   1650 H          17.8716    4.2741   12.3148 H     275  UNL275      0.2090
   1651 O          18.5502    5.1666   15.6351 O.3   276  UNL276     -0.3982
   1652 C          17.1344    5.1666   15.6351 C.3   276  UNL276      0.0330
   1653 H          16.7691    4.3976   16.3203 H     276  UNL276      0.0521
   1654 H          16.7692    4.9719   14.6238 H     276  UNL276      0.0521
   1655 H          16.7791    6.1452   15.9663 H     276  UNL276      0.0521
   1656 H          18.8359    4.2862   15.3371 H     276  UNL276      0.2090
   1657 O          21.8681   -0.9219    1.9974 O.3   277  UNL277     -0.3982
   1658 C          20.4523   -0.9219    1.9974 C.3   277  UNL277      0.0330
   1659 H          20.0870   -1.6909    2.6826 H     277  UNL277      0.0521
   1660 H          20.0871   -1.1166    0.9861 H     277  UNL277      0.0521
   1661 H          20.0970    0.0567    2.3286 H     277  UNL277      0.0521
   1662 H          22.1538   -1.8023    1.6994 H     277  UNL277      0.2090
   1663 O          22.0023   -0.9361    5.7079 O.3   278  UNL278     -0.3982
   1664 C          20.5865   -0.9361    5.7079 C.3   278  UNL278      0.0330
   1665 H          20.2212   -1.0894    6.7264 H     278  UNL278      0.0521
   1666 H          20.2213   -1.7324    5.0547 H     278  UNL278      0.0521
   1667 H          20.2312    0.0281    5.3370 H     278  UNL278      0.0521
   1668 H          22.2880   -1.8036    6.0416 H     278  UNL278      0.2090
   1669 O          19.8912   -0.7079    4.8162 O.3   279  UNL279     -0.3982
   1670 C          19.5872   -1.2893    6.0708 C.3   279  UNL279      0.0330
   1671 H          19.3808   -0.5005    6.7985 H     279  UNL279      0.0521
   1672 H          20.4312   -1.8970    6.4058 H     279  UNL279      0.0521
   1673 H          18.7041   -1.9235    5.9639 H     279  UNL279      0.0521
   1674 H          20.6784   -0.1513    4.9425 H     279  UNL279      0.2090
   1675 O          19.9231    1.0961    5.0186 O.3   280  UNL280     -0.3982
   1676 C          21.2504    1.2130    5.4972 C.3   280  UNL280      0.0330
   1677 H          21.8747    0.4449    5.0341 H     280  UNL280      0.0521
   1678 H          21.2583    1.0979    6.5838 H     280  UNL280      0.0521
   1679 H          21.6370    2.2006    5.2348 H     280  UNL280      0.0521
   1680 H          19.6071    0.2105    5.2661 H     280  UNL280      0.2090
   1681 O          21.5623   -0.9098   13.6869 O.3   281  UNL281     -0.3982
   1682 C          20.1465   -0.9098   13.6869 C.3   281  UNL281      0.0330
   1683 H          19.7812   -1.6788   14.3721 H     281  UNL281      0.0521
   1684 H          19.7813   -1.1045   12.6756 H     281  UNL281      0.0521
   1685 H          19.7912    0.0688   14.0181 H     281  UNL281      0.0521
   1686 H          21.8480   -1.7902   13.3889 H     281  UNL281      0.2090
   1687 O          21.8681    0.9041    0.1923 O.3   282  UNL282     -0.3982
   1688 C          20.4523    0.9041    0.1923 C.3   282  UNL282      0.0330
   1689 H          20.0870    0.2770   -0.6247 H     282  UNL282      0.0521
   1690 H          20.0871    1.9269    0.0721 H     282  UNL282      0.0521
   1691 H          20.0970    0.5022    1.1441 H     282  UNL282      0.0521
   1692 H          22.1538    1.2657   -0.6639 H     282  UNL282      0.2090
   1693 O          21.7581    3.2239    3.8612 O.3   283  UNL283     -0.3982
   1694 C          20.3423    3.2239    3.8612 C.3   283  UNL283      0.0330
   1695 H          19.9770    2.5875    4.6710 H     283  UNL283      0.0521
   1696 H          19.9771    2.8543    2.9000 H     283  UNL283      0.0521
   1697 H          19.9870    4.2455    4.0150 H     283  UNL283      0.0521
   1698 H          22.0438    2.3048    3.7228 H     283  UNL283      0.2090
   1699 O          21.9902    0.8468    5.4131 O.3   284  UNL284     -0.3982
   1700 C          20.5744    0.8468    5.4131 C.3   284  UNL284      0.0330
   1701 H          20.2091    1.8760    5.3738 H     284  UNL284      0.0521
   1702 H          20.2092    0.3536    6.3172 H     284  UNL284      0.0521
   1703 H          20.2191    0.3026    4.5350 H     284  UNL284      0.0521
   1704 H          22.2759    1.3364    6.2032 H     284  UNL284      0.2090
   1705 O          18.7995    0.6235    5.5210 O.3   285  UNL285     -0.3982
   1706 C          20.0494    1.2171    5.8209 C.3   285  UNL285      0.0330
   1707 H          20.8057    0.4369    5.9376 H     285  UNL285      0.0521
   1708 H          19.9657    1.7991    6.7419 H     285  UNL285      0.0521
   1709 H          20.3349    1.8783    4.9994 H     285  UNL285      0.0521
   1710 H          18.5725    0.0429    6.2673 H     285  UNL285      0.2090
   1711 O          18.7823    1.0837    7.8883 O.3   286  UNL286     -0.3982
   1712 C          17.3665    1.0837    7.8883 C.3   286  UNL286      0.0330
   1713 H          17.0012    0.0921    8.1669 H     286  UNL286      0.0521
   1714 H          17.0013    1.3522    6.8941 H     286  UNL286      0.0521
   1715 H          17.0112    1.8179    8.6152 H     286  UNL286      0.0521
   1716 H          19.0680    0.4231    7.2344 H     286  UNL286      0.2090
   1717 O          21.5623    0.8468    9.5758 O.3   287  UNL287     -0.3982
   1718 C          20.1465    0.8468    9.5758 C.3   287  UNL287      0.0330
   1719 H          19.7812    1.8760    9.5365 H     287  UNL287      0.0521
   1720 H          19.7813    0.3536   10.4799 H     287  UNL287      0.0521
   1721 H          19.7912    0.3026    8.6976 H     287  UNL287      0.0521
   1722 H          21.8480    1.3364   10.3659 H     287  UNL287      0.2090
   1723 O          20.3696    1.3520   10.9347 O.3   288  UNL288     -0.3982
   1724 C          21.3817    0.8482   11.7869 C.3   288  UNL288      0.0330
   1725 H          21.1748   -0.1992   12.0203 H     288  UNL288      0.0521
   1726 H          21.4123    1.4382   12.7061 H     288  UNL288      0.0521
   1727 H          22.3450    0.9221   11.2768 H     288  UNL288      0.0521
   1728 H          19.5272    1.2735   11.4140 H     288  UNL288      0.2090
   1729 O          21.7581    3.2247   15.7650 O.3   289  UNL289     -0.3982
   1730 C          20.3423    3.2247   15.7650 C.3   289  UNL289      0.0330
   1731 H          19.9770    2.6191   16.5982 H     289  UNL289      0.0521
   1732 H          19.9771    2.8192   14.8183 H     289  UNL289      0.0521
   1733 H          19.9870    4.2513   15.8804 H     289  UNL289      0.0521
   1734 H          22.0438    2.3010   15.6612 H     289  UNL289      0.2090
   1735 O          20.0869    1.9327   15.5413 O.3   290  UNL290     -0.3982
   1736 C          19.2957    0.7592   15.5057 C.3   290  UNL290      0.0330
   1737 H          19.0972    0.4214   16.5259 H     290  UNL290      0.0521
   1738 H          19.8222   -0.0195   14.9486 H     290  UNL290      0.0521
   1739 H          18.3494    0.9837   15.0080 H     290  UNL290      0.0521
   1740 H          20.9193    1.7026   15.9882 H     290  UNL290      0.2090
   1741 O          21.7581    3.1371    0.0491 O.3   291  UNL291     -0.3982
   1742 C          20.3423    3.1371    0.0491 C.3   291  UNL291      0.0330
   1743 H          19.9770    2.3681    0.7343 H     291  UNL291      0.0521
   1744 H          19.9771    2.9424   -0.9622 H     291  UNL291      0.0521
   1745 H          19.9870    4.1157    0.3803 H     291  UNL291      0.0521
   1746 H          22.0438    2.2567   -0.2489 H     291  UNL291      0.2090
   1747 O          20.8681    1.0271    1.9974 O.3   292  UNL292     -0.3982
   1748 C          19.4523    1.0271    1.9974 C.3   292  UNL292      0.0330
   1749 H          19.0870    0.2581    2.6826 H     292  UNL292      0.0521
   1750 H          19.0871    0.8324    0.9861 H     292  UNL292      0.0521
   1751 H          19.0970    2.0057    2.3286 H     292  UNL292      0.0521
   1752 H          21.1538    0.1467    1.6994 H     292  UNL292      0.2090
   1753 O          20.9044    1.2471    3.9456 O.3   293  UNL293     -0.3982
   1754 C          19.4886    1.2471    3.9456 C.3   293  UNL293      0.0330
   1755 H          19.1233    0.4781    4.6308 H     293  UNL293      0.0521
   1756 H          19.1234    1.0524    2.9343 H     293  UNL293      0.0521
   1757 H          19.1333    2.2257    4.2768 H     293  UNL293      0.0521
   1758 H          21.1901    0.3667    3.6476 H     293  UNL293      0.2090
   1759 O          21.4433    3.1492    4.9252 O.3   294  UNL294     -0.3982
   1760 C          20.7873    3.1492    6.1798 C.3   294  UNL294      0.0330
   1761 H          21.2252    2.3802    6.8210 H     294  UNL294      0.0521
   1762 H          19.7219    2.9545    6.0348 H     294  UNL294      0.0521
   1763 H          20.9161    4.1278    6.6481 H     294  UNL294      0.0521
   1764 H          21.3116    2.2688    4.5339 H     294  UNL294      0.2090
   1765 O          19.8793    3.5618   10.6857 O.3   295  UNL295     -0.3982
   1766 C          19.5753    2.9804    9.4311 C.3   295  UNL295      0.0330
   1767 H          18.6529    2.3999    9.5114 H     295  UNL295      0.0521
   1768 H          20.3992    2.3341    9.1188 H     295  UNL295      0.0521
   1769 H          19.4397    3.7758    8.6944 H     295  UNL295      0.0521
   1770 H          19.9940    2.8323   11.3183 H     295  UNL295      0.2090
   1771 O          20.8802    1.2471    9.8267 O.3   296  UNL296     -0.3982
   1772 C          19.4644    1.2471    9.8267 C.3   296  UNL296      0.0330
   1773 H          19.0991    0.4781   10.5119 H     296  UNL296      0.0521
   1774 H          19.0992    1.0524    8.8154 H     296  UNL296      0.0521
   1775 H          19.1091    2.2257   10.1579 H     296  UNL296      0.0521
   1776 H          21.1659    0.3667    9.5287 H     296  UNL296      0.2090
   1777 O          22.1002    3.1613    9.7386 O.3   297  UNL297     -0.3982
   1778 C          20.6844    3.1613    9.7386 C.3   297  UNL297      0.0330
   1779 H          20.3191    2.3923   10.4238 H     297  UNL297      0.0521
   1780 H          20.3192    2.9666    8.7273 H     297  UNL297      0.0521
   1781 H          20.3291    4.1399   10.0698 H     297  UNL297      0.0521
   1782 H          22.3859    2.2809    9.4406 H     297  UNL297      0.2090
   1783 O          20.8802    1.1371   13.6869 O.3   298  UNL298     -0.3982
   1784 C          19.4644    1.1371   13.6869 C.3   298  UNL298      0.0330
   1785 H          19.0991    0.3681   14.3721 H     298  UNL298      0.0521
   1786 H          19.0992    0.9424   12.6756 H     298  UNL298      0.0521
   1787 H          19.1091    2.1157   14.0181 H     298  UNL298      0.0521
   1788 H          21.1659    0.2567   13.3889 H     298  UNL298      0.2090
   1789 O          19.2330    2.0296   16.4702 O.3   299  UNL299     -0.3982
   1790 C          20.0803    0.9277   16.7393 C.3   299  UNL299      0.0330
   1791 H          20.5136    0.5632   15.8046 H     299  UNL299      0.0521
   1792 H          19.5046    0.1334   17.2206 H     299  UNL299      0.0521
   1793 H          20.8814    1.2506   17.4083 H     299  UNL299      0.0521
   1794 H          18.5325    1.7126   15.8748 H     299  UNL299      0.2090
   1795 O          20.8681    4.8969    0.0866 O.3   300  UNL300     -0.3982
   1796 C          19.4523    4.8969    0.0866 C.3   300  UNL300      0.0330
   1797 H          19.0870    4.8082   -0.9395 H     300  UNL300      0.0521
   1798 H          19.0871    5.8236    0.5359 H     300  UNL300      0.0521
   1799 H          19.0970    4.0459    0.6724 H     300  UNL300      0.0521
   1800 H          21.1538    5.6625   -0.4404 H     300  UNL300      0.2090
   1801 O          22.0023    6.1666    1.9974 O.3   301  UNL301     -0.3982
   1802 C          20.5865    6.1666    1.9974 C.3   301  UNL301      0.0330
   1803 H          20.2212    5.3976    2.6826 H     301  UNL301      0.0521
   1804 H          20.2213    5.9719    0.9861 H     301  UNL301      0.0521
   1805 H          20.2312    7.1452    2.3286 H     301  UNL301      0.0521
   1806 H          22.2880    5.2862    1.6994 H     301  UNL301      0.2090
   1807 O          19.4252    5.1190    2.8680 O.3   302  UNL302     -0.3982
   1808 C          20.0613    5.1323    4.1328 C.3   302  UNL302      0.0330
   1809 H          20.3712    4.1181    4.3965 H     302  UNL302      0.0521
   1810 H          19.3704    5.5208    4.8850 H     302  UNL302      0.0521
   1811 H          20.9410    5.7780    4.0813 H     302  UNL302      0.0521
   1812 H          18.6489    4.5384    2.9447 H     302  UNL302      0.2090
   1813 O          20.8681    4.8969    5.9314 O.3   303  UNL303     -0.3982
   1814 C          19.4523    4.8969    5.9314 C.3   303  UNL303      0.0330
   1815 H          19.0870    4.8082    4.9052 H     303  UNL303      0.0521
   1816 H          19.0871    5.8236    6.3806 H     303  UNL303      0.0521
   1817 H          19.0970    4.0459    6.5172 H     303  UNL303      0.0521
   1818 H          21.1538    5.6625    5.4044 H     303  UNL303      0.2090
   1819 O          21.8681    6.1666    7.8421 O.3   304  UNL304     -0.3982
   1820 C          20.4523    6.1666    7.8421 C.3   304  UNL304      0.0330
   1821 H          20.0870    5.3976    8.5273 H     304  UNL304      0.0521
   1822 H          20.0871    5.9719    6.8308 H     304  UNL304      0.0521
   1823 H          20.0970    7.1452    8.1733 H     304  UNL304      0.0521
   1824 H          22.1538    5.2862    7.5441 H     304  UNL304      0.2090
   1825 O          20.8681    4.9210    9.8552 O.3   305  UNL305     -0.3982
   1826 C          19.4523    4.9210    9.8552 C.3   305  UNL305      0.0330
   1827 H          19.0870    4.5913    8.8794 H     305  UNL305      0.0521
   1828 H          19.0871    5.9278   10.0717 H     305  UNL305      0.0521
   1829 H          19.0970    4.2333   10.6262 H     305  UNL305      0.0521
   1830 H          21.1538    5.5397    9.1616 H     305  UNL305      0.2090
   1831 O          21.7581    5.9466   11.5577 O.3   306  UNL306     -0.3982
   1832 C          20.3423    5.9466   11.5577 C.3   306  UNL306      0.0330
   1833 H          19.9770    6.9766   11.5537 H     306  UNL306      0.0521
   1834 H          19.9771    5.4226   12.4443 H     306  UNL306      0.0521
   1835 H          19.9870    5.4329   10.6613 H     306  UNL306      0.0521
   1836 H          22.0438    6.4088   12.3641 H     306  UNL306      0.2090
   1837 O          20.4813    4.8110   14.4770 O.3   307  UNL307     -0.3982
   1838 C          19.7196    4.9560   13.2925 C.3   307  UNL307      0.0330
   1839 H          19.6753    6.0118   13.0136 H     307  UNL307      0.0521
   1840 H          18.7111    4.5690   13.4571 H     307  UNL307      0.0521
   1841 H          20.1985    4.3894   12.4905 H     307  UNL307      0.0521
   1842 H          20.0322    5.3242   15.1701 H     307  UNL307      0.2090
   1843 O          21.8681    6.1666   15.6351 O.3   308  UNL308     -0.3982
   1844 C          20.4523    6.1666   15.6351 C.3   308  UNL308      0.0330
   1845 H          20.0870    5.3976   16.3203 H     308  UNL308      0.0521
   1846 H          20.0871    5.9719   14.6238 H     308  UNL308      0.0521
   1847 H          20.0970    7.1452   15.9663 H     308  UNL308      0.0521
   1848 H          22.1538    5.2862   15.3371 H     308  UNL308      0.2090
@<TRIPOS>BOND
     1     1     2    1
     2     1     6    1
     3     2     3    1
     4     2     4    1
     5     2     5    1
     6     7     8    1
     7     7    12    1
     8     8     9    1
     9     8    10    1
    10     8    11    1
    11    13    14    1
    12    13    18    1
    13    14    15    1
    14    14    16    1
    15    14    17    1
    16    19    20    1
    17    19    24    1
    18    20    21    1
    19    20    22    1
    20    20    23    1
    21    25    26    1
    22    25    30    1
    23    26    27    1
    24    26    28    1
    25    26    29    1
    26    31    32    1
    27    31    36    1
    28    32    33    1
    29    32    34    1
    30    32    35    1
    31    37    38    1
    32    37    42    1
    33    38    39    1
    34    38    40    1
    35    38    41    1
    36    43    44    1
    37    43    48    1
    38    44    45    1
    39    44    46    1
    40    44    47    1
    41    49    50    1
    42    49    54    1
    43    50    51    1
    44    50    52    1
    45    50    53    1
    46    55    56    1
    47    55    60    1
    48    56    57    1
    49    56    58    1
    50    56    59    1
    51    61    62    1
    52    61    66    1
    53    62    63    1
    54    62    64    1
    55    62    65    1
    56    67    68    1
    57    67    72    1
    58    68    69    1
    59    68    70    1
    60    68    71    1
    61    73    74    1
    62    73    78    1
    63    74    75    1
    64    74    76    1
    65    74    77    1
    66    79    80    1
    67    79    84    1
    68    80    81    1
    69    80    82    1
    70    80    83    1
    71    85    86    1
    72    85    90    1
    73    86    87    1
    74    86    88    1
    75    86    89    1
    76    91    92    1
    77    91    96    1
    78    92    93    1
    79    92    94    1
    80    92    95    1
    81    97    98    1
    82    97   102    1
    83    98    99    1
    84    98   100    1
    85    98   101    1
    86   103   104    1
    87   103   108    1
    88   104   105    1
    89   104   106    1
    90   104   107    1
    91   109   110    1
    92   109   114    1
    93   110   111    1
    94   110   112    1
    95   110   113    1
    96   115   116    1
    97   115   120    1
    98   116   117    1
    99   116   118    1
   100   116   119    1
   101   121   122    1
   102   121   126    1
   103   122   123    1
   104   122   124    1
   105   122   125    1
   106   127   128    1
   107   127   132    1
   108   128   129    1
   109   128   130    1
   110   128   131    1
   111   133   134    1
   112   133   138    1
   113   134   135    1
   114   134   136    1
   115   134   137    1
   116   139   140    1
   117   139   144    1
   118   140   141    1
   119   140   142    1
   120   140   143    1
   121   145   146    1
   122   145   150    1
   123   146   147    1
   124   146   148    1
   125   146   149    1
   126   151   152    1
   127   151   156    1
   128   152   153    1
   129   152   154    1
   130   152   155    1
   131   157   158    1
   132   157   162    1
   133   158   159    1
   134   158   160    1
   135   158   161    1
   136   163   164    1
   137   163   168    1
   138   164   165    1
   139   164   166    1
   140   164   167    1
   141   169   170    1
   142   169   174    1
   143   170   171    1
   144   170   172    1
   145   170   173    1
   146   175   176    1
   147   175   180    1
   148   176   177    1
   149   176   178    1
   150   176   179    1
   151   181   182    1
   152   181   186    1
   153   182   183    1
   154   182   184    1
   155   182   185    1
   156   187   188    1
   157   187   192    1
   158   188   189    1
   159   188   190    1
   160   188   191    1
   161   193   194    1
   162   193   198    1
   163   194   195    1
   164   194   196    1
   165   194   197    1
   166   199   200    1
   167   199   204    1
   168   200   201    1
   169   200   202    1
   170   200   203    1
   171   205   206    1
   172   205   210    1
   173   206   207    1
   174   206   208    1
   175   206   209    1
   176   211   212    1
   177   211   216    1
   178   212   213    1
   179   212   214    1
   180   212   215    1
   181   217   218    1
   182   217   222    1
   183   218   219    1
   184   218   220    1
   185   218   221    1
   186   223   224    1
   187   223   228    1
   188   224   225    1
   189   224   226    1
   190   224   227    1
   191   229   230    1
   192   229   234    1
   193   230   231    1
   194   230   232    1
   195   230   233    1
   196   235   236    1
   197   235   240    1
   198   236   237    1
   199   236   238    1
   200   236   239    1
   201   241   242    1
   202   241   246    1
   203   242   243    1
   204   242   244    1
   205   242   245    1
   206   247   248    1
   207   247   252    1
   208   248   249    1
   209   248   250    1
   210   248   251    1
   211   253   254    1
   212   253   258    1
   213   254   255    1
   214   254   256    1
   215   254   257    1
   216   259   260    1
   217   259   264    1
   218   260   261    1
   219   260   262    1
   220   260   263    1
   221   265   266    1
   222   265   270    1
   223   266   267    1
   224   266   268    1
   225   266   269    1
   226   271   272    1
   227   271   276    1
   228   272   273    1
   229   272   274    1
   230   272   275    1
   231   277   278    1
   232   277   282    1
   233   278   279    1
   234   278   280    1
   235   278   281    1
   236   283   284    1
   237   283   288    1
   238   284   285    1
   239   284   286    1
   240   284   287    1
   241   289   290    1
   242   289   294    1
   243   290   291    1
   244   290   292    1
   245   290   293    1
   246   295   296    1
   247   295   300    1
   248   296   297    1
   249   296   298    1
   250   296   299    1
   251   301   302    1
   252   301   306    1
   253   302   303    1
   254   302   304    1
   255   302   305    1
   256   307   308    1
   257   307   312    1
   258   308   309    1
   259   308   310    1
   260   308   311    1
   261   313   314    1
   262   313   318    1
   263   314   315    1
   264   314   316    1
   265   314   317    1
   266   319   320    1
   267   319   324    1
   268   320   321    1
   269   320   322    1
   270   320   323    1
   271   325   326    1
   272   325   330    1
   273   326   327    1
   274   326   328    1
   275   326   329    1
   276   331   332    1
   277   331   336    1
   278   332   333    1
   279   332   334    1
   280   332   335    1
   281   337   338    1
   282   337   342    1
   283   338   339    1
   284   338   340    1
   285   338   341    1
   286   343   344    1
   287   343   348    1
   288   344   345    1
   289   344   346    1
   290   344   347    1
   291   349   350    1
   292   349   354    1
   293   350   351    1
   294   350   352    1
   295   350   353    1
   296   355   356    1
   297   355   360    1
   298   356   357    1
   299   356   358    1
   300   356   359    1
   301   361   362    1
   302   361   366    1
   303   362   363    1
   304   362   364    1
   305   362   365    1
   306   367   368    1
   307   367   372    1
   308   368   369    1
   309   368   370    1
   310   368   371    1
   311   373   374    1
   312   373   378    1
   313   374   375    1
   314   374   376    1
   315   374   377    1
   316   379   380    1
   317   379   384    1
   318   380   381    1
   319   380   382    1
   320   380   383    1
   321   385   386    1
   322   385   390    1
   323   386   387    1
   324   386   388    1
   325   386   389    1
   326   391   392    1
   327   391   396    1
   328   392   393    1
   329   392   394    1
   330   392   395    1
   331   397   398    1
   332   397   402    1
   333   398   399    1
   334   398   400    1
   335   398   401    1
   336   403   404    1
   337   403   408    1
   338   404   405    1
   339   404   406    1
   340   404   407    1
   341   409   410    1
   342   409   414    1
   343   410   411    1
   344   410   412    1
   345   410   413    1
   346   415   416    1
   347   415   420    1
   348   416   417    1
   349   416   418    1
   350   416   419    1
   351   421   422    1
   352   421   426    1
   353   422   423    1
   354   422   424    1
   355   422   425    1
   356   427   428    1
   357   427   432    1
   358   428   429    1
   359   428   430    1
   360   428   431    1
   361   433   434    1
   362   433   438    1
   363   434   435    1
   364   434   436    1
   365   434   437    1
   366   439   440    1
   367   439   444    1
   368   440   441    1
   369   440   442    1
   370   440   443    1
   371   445   446    1
   372   445   450    1
   373   446   447    1
   374   446   448    1
   375   446   449    1
   376   451   452    1
   377   451   456    1
   378   452   453    1
   379   452   454    1
   380   452   455    1
   381   457   458    1
   382   457   462    1
   383   458   459    1
   384   458   460    1
   385   458   461    1
   386   463   464    1
   387   463   468    1
   388   464   465    1
   389   464   466    1
   390   464   467    1
   391   469   470    1
   392   469   474    1
   393   470   471    1
   394   470   472    1
   395   470   473    1
   396   475   476    1
   397   475   480    1
   398   476   477    1
   399   476   478    1
   400   476   479    1
   401   481   482    1
   402   481   486    1
   403   482   483    1
   404   482   484    1
   405   482   485    1
   406   487   488    1
   407   487   492    1
   408   488   489    1
   409   488   490    1
   410   488   491    1
   411   493   494    1
   412   493   498    1
   413   494   495    1
   414   494   496    1
   415   494   497    1
   416   499   500    1
   417   499   504    1
   418   500   501    1
   419   500   502    1
   420   500   503    1
   421   505   506    1
   422   505   510    1
   423   506   507    1
   424   506   508    1
   425   506   509    1
   426   511   512    1
   427   511   516    1
   428   512   513    1
   429   512   514    1
   430   512   515    1
   431   517   518    1
   432   517   522    1
   433   518   519    1
   434   518   520    1
   435   518   521    1
   436   523   524    1
   437   523   528    1
   438   524   525    1
   439   524   526    1
   440   524   527    1
   441   529   530    1
   442   529   534    1
   443   530   531    1
   444   530   532    1
   445   530   533    1
   446   535   536    1
   447   535   540    1
   448   536   537    1
   449   536   538    1
   450   536   539    1
   451   541   542    1
   452   541   546    1
   453   542   543    1
   454   542   544    1
   455   542   545    1
   456   547   548    1
   457   547   552    1
   458   548   549    1
   459   548   550    1
   460   548   551    1
   461   553   554    1
   462   553   558    1
   463   554   555    1
   464   554   556    1
   465   554   557    1
   466   559   560    1
   467   559   564    1
   468   560   561    1
   469   560   562    1
   470   560   563    1
   471   565   566    1
   472   565   570    1
   473   566   567    1
   474   566   568    1
   475   566   569    1
   476   571   572    1
   477   571   576    1
   478   572   573    1
   479   572   574    1
   480   572   575    1
   481   577   578    1
   482   577   582    1
   483   578   579    1
   484   578   580    1
   485   578   581    1
   486   583   584    1
   487   583   588    1
   488   584   585    1
   489   584   586    1
   490   584   587    1
   491   589   590    1
   492   589   594    1
   493   590   591    1
   494   590   592    1
   495   590   593    1
   496   595   596    1
   497   595   600    1
   498   596   597    1
   499   596   598    1
   500   596   599    1
   501   601   602    1
   502   601   606    1
   503   602   603    1
   504   602   604    1
   505   602   605    1
   506   607   608    1
   507   607   612    1
   508   608   609    1
   509   608   610    1
   510   608   611    1
   511   613   614    1
   512   613   618    1
   513   614   615    1
   514   614   616    1
   515   614   617    1
   516   619   620    1
   517   619   624    1
   518   620   621    1
   519   620   622    1
   520   620   623    1
   521   625   626    1
   522   625   630    1
   523   626   627    1
   524   626   628    1
   525   626   629    1
   526   631   632    1
   527   631   636    1
   528   632   633    1
   529   632   634    1
   530   632   635    1
   531   637   638    1
   532   637   642    1
   533   638   639    1
   534   638   640    1
   535   638   641    1
   536   643   644    1
   537   643   648    1
   538   644   645    1
   539   644   646    1
   540   644   647    1
   541   649   650    1
   542   649   654    1
   543   650   651    1
   544   650   652    1
   545   650   653    1
   546   655   656    1
   547   655   660    1
   548   656   657    1
   549   656   658    1
   550   656   659    1
   551   661   662    1
   552   661   666    1
   553   662   663    1
   554   662   664    1
   555   662   665    1
   556   667   668    1
   557   667   672    1
   558   668   669    1
   559   668   670    1
   560   668   671    1
   561   673   674    1
   562   673   678    1
   563   674   675    1
   564   674   676    1
   565   674   677    1
   566   679   680    1
   567   679   684    1
   568   680   681    1
   569   680   682    1
   570   680   683    1
   571   685   686    1
   572   685   690    1
   573   686   687    1
   574   686   688    1
   575   686   689    1
   576   691   692    1
   577   691   696    1
   578   692   693    1
   579   692   694    1
   580   692   695    1
   581   697   698    1
   582   697   702    1
   583   698   699    1
   584   698   700    1
   585   698   701    1
   586   703   704    1
   587   703   708    1
   588   704   705    1
   589   704   706    1
   590   704   707    1
   591   709   710    1
   592   709   714    1
   593   710   711    1
   594   710   712    1
   595   710   713    1
   596   715   716    1
   597   715   720    1
   598   716   717    1
   599   716   718    1
   600   716   719    1
   601   721   722    1
   602   721   726    1
   603   722   723    1
   604   722   724    1
   605   722   725    1
   606   727   728    1
   607   727   732    1
   608   728   729    1
   609   728   730    1
   610   728   731    1
   611   733   734    1
   612   733   738    1
   613   734   735    1
   614   734   736    1
   615   734   737    1
   616   739   740    1
   617   739   744    1
   618   740   741    1
   619   740   742    1
   620   740   743    1
   621   745   746    1
   622   745   750    1
   623   746   747    1
   624   746   748    1
   625   746   749    1
   626   751   752    1
   627   751   756    1
   628   752   753    1
   629   752   754    1
   630   752   755    1
   631   757   758    1
   632   757   762    1
   633   758   759    1
   634   758   760    1
   635   758   761    1
   636   763   764    1
   637   763   768    1
   638   764   765    1
   639   764   766    1
   640   764   767    1
   641   769   770    1
   642   769   774    1
   643   770   771    1
   644   770   772    1
   645   770   773    1
   646   775   776    1
   647   775   780    1
   648   776   777    1
   649   776   778    1
   650   776   779    1
   651   781   782    1
   652   781   786    1
   653   782   783    1
   654   782   784    1
   655   782   785    1
   656   787   788    1
   657   787   792    1
   658   788   789    1
   659   788   790    1
   660   788   791    1
   661   793   794    1
   662   793   798    1
   663   794   795    1
   664   794   796    1
   665   794   797    1
   666   799   800    1
   667   799   804    1
   668   800   801    1
   669   800   802    1
   670   800   803    1
   671   805   806    1
   672   805   810    1
   673   806   807    1
   674   806   808    1
   675   806   809    1
   676   811   812    1
   677   811   816    1
   678   812   813    1
   679   812   814    1
   680   812   815    1
   681   817   818    1
   682   817   822    1
   683   818   819    1
   684   818   820    1
   685   818   821    1
   686   823   824    1
   687   823   828    1
   688   824   825    1
   689   824   826    1
   690   824   827    1
   691   829   830    1
   692   829   834    1
   693   830   831    1
   694   830   832    1
   695   830   833    1
   696   835   836    1
   697   835   840    1
   698   836   837    1
   699   836   838    1
   700   836   839    1
   701   841   842    1
   702   841   846    1
   703   842   843    1
   704   842   844    1
   705   842   845    1
   706   847   848    1
   707   847   852    1
   708   848   849    1
   709   848   850    1
   710   848   851    1
   711   853   854    1
   712   853   858    1
   713   854   855    1
   714   854   856    1
   715   854   857    1
   716   859   860    1
   717   859   864    1
   718   860   861    1
   719   860   862    1
   720   860   863    1
   721   865   866    1
   722   865   870    1
   723   866   867    1
   724   866   868    1
   725   866   869    1
   726   871   872    1
   727   871   876    1
   728   872   873    1
   729   872   874    1
   730   872   875    1
   731   877   878    1
   732   877   882    1
   733   878   879    1
   734   878   880    1
   735   878   881    1
   736   883   884    1
   737   883   888    1
   738   884   885    1
   739   884   886    1
   740   884   887    1
   741   889   890    1
   742   889   894    1
   743   890   891    1
   744   890   892    1
   745   890   893    1
   746   895   896    1
   747   895   900    1
   748   896   897    1
   749   896   898    1
   750   896   899    1
   751   901   902    1
   752   901   906    1
   753   902   903    1
   754   902   904    1
   755   902   905    1
   756   907   908    1
   757   907   912    1
   758   908   909    1
   759   908   910    1
   760   908   911    1
   761   913   914    1
   762   913   918    1
   763   914   915    1
   764   914   916    1
   765   914   917    1
   766   919   920    1
   767   919   924    1
   768   920   921    1
   769   920   922    1
   770   920   923    1
   771   925   926    1
   772   925   930    1
   773   926   927    1
   774   926   928    1
   775   926   929    1
   776   931   932    1
   777   931   936    1
   778   932   933    1
   779   932   934    1
   780   932   935    1
   781   937   938    1
   782   937   942    1
   783   938   939    1
   784   938   940    1
   785   938   941    1
   786   943   944    1
   787   943   948    1
   788   944   945    1
   789   944   946    1
   790   944   947    1
   791   949   950    1
   792   949   954    1
   793   950   951    1
   794   950   952    1
   795   950   953    1
   796   955   956    1
   797   955   960    1
   798   956   957    1
   799   956   958    1
   800   956   959    1
   801   961   962    1
   802   961   966    1
   803   962   963    1
   804   962   964    1
   805   962   965    1
   806   967   968    1
   807   967   972    1
   808   968   969    1
   809   968   970    1
   810   968   971    1
   811   973   974    1
   812   973   978    1
   813   974   975    1
   814   974   976    1
   815   974   977    1
   816   979   980    1
   817   979   984    1
   818   980   981    1
   819   980   982    1
   820   980   983    1
   821   985   986    1
   822   985   990    1
   823   986   987    1
   824   986   988    1
   825   986   989    1
   826   991   992    1
   827   991   996    1
   828   992   993    1
   829   992   994    1
   830   992   995    1
   831   997   998    1
   832   997  1002    1
   833   998   999    1
   834   998  1000    1
   835   998  1001    1
   836  1003  1004    1
   837  1003  1008    1
   838  1004  1005    1
   839  1004  1006    1
   840  1004  1007    1
   841  1009  1010    1
   842  1009  1014    1
   843  1010  1011    1
   844  1010  1012    1
   845  1010  1013    1
   846  1015  1016    1
   847  1015  1020    1
   848  1016  1017    1
   849  1016  1018    1
   850  1016  1019    1
   851  1021  1022    1
   852  1021  1026    1
   853  1022  1023    1
   854  1022  1024    1
   855  1022  1025    1
   856  1027  1028    1
   857  1027  1032    1
   858  1028  1029    1
   859  1028  1030    1
   860  1028  1031    1
   861  1033  1034    1
   862  1033  1038    1
   863  1034  1035    1
   864  1034  1036    1
   865  1034  1037    1
   866  1039  1040    1
   867  1039  1044    1
   868  1040  1041    1
   869  1040  1042    1
   870  1040  1043    1
   871  1045  1046    1
   872  1045  1050    1
   873  1046  1047    1
   874  1046  1048    1
   875  1046  1049    1
   876  1051  1052    1
   877  1051  1056    1
   878  1052  1053    1
   879  1052  1054    1
   880  1052  1055    1
   881  1057  1058    1
   882  1057  1062    1
   883  1058  1059    1
   884  1058  1060    1
   885  1058  1061    1
   886  1063  1064    1
   887  1063  1068    1
   888  1064  1065    1
   889  1064  1066    1
   890  1064  1067    1
   891  1069  1070    1
   892  1069  1074    1
   893  1070  1071    1
   894  1070  1072    1
   895  1070  1073    1
   896  1075  1076    1
   897  1075  1080    1
   898  1076  1077    1
   899  1076  1078    1
   900  1076  1079    1
   901  1081  1082    1
   902  1081  1086    1
   903  1082  1083    1
   904  1082  1084    1
   905  1082  1085    1
   906  1087  1088    1
   907  1087  1092    1
   908  1088  1089    1
   909  1088  1090    1
   910  1088  1091    1
   911  1093  1094    1
   912  1093  1098    1
   913  1094  1095    1
   914  1094  1096    1
   915  1094  1097    1
   916  1099  1100    1
   917  1099  1104    1
   918  1100  1101    1
   919  1100  1102    1
   920  1100  1103    1
   921  1105  1106    1
   922  1105  1110    1
   923  1106  1107    1
   924  1106  1108    1
   925  1106  1109    1
   926  1111  1112    1
   927  1111  1116    1
   928  1112  1113    1
   929  1112  1114    1
   930  1112  1115    1
   931  1117  1118    1
   932  1117  1122    1
   933  1118  1119    1
   934  1118  1120    1
   935  1118  1121    1
   936  1123  1124    1
   937  1123  1128    1
   938  1124  1125    1
   939  1124  1126    1
   940  1124  1127    1
   941  1129  1130    1
   942  1129  1134    1
   943  1130  1131    1
   944  1130  1132    1
   945  1130  1133    1
   946  1135  1136    1
   947  1135  1140    1
   948  1136  1137    1
   949  1136  1138    1
   950  1136  1139    1
   951  1141  1142    1
   952  1141  1146    1
   953  1142  1143    1
   954  1142  1144    1
   955  1142  1145    1
   956  1147  1148    1
   957  1147  1152    1
   958  1148  1149    1
   959  1148  1150    1
   960  1148  1151    1
   961  1153  1154    1
   962  1153  1158    1
   963  1154  1155    1
   964  1154  1156    1
   965  1154  1157    1
   966  1159  1160    1
   967  1159  1164    1
   968  1160  1161    1
   969  1160  1162    1
   970  1160  1163    1
   971  1165  1166    1
   972  1165  1170    1
   973  1166  1167    1
   974  1166  1168    1
   975  1166  1169    1
   976  1171  1172    1
   977  1171  1176    1
   978  1172  1173    1
   979  1172  1174    1
   980  1172  1175    1
   981  1177  1178    1
   982  1177  1182    1
   983  1178  1179    1
   984  1178  1180    1
   985  1178  1181    1
   986  1183  1184    1
   987  1183  1188    1
   988  1184  1185    1
   989  1184  1186    1
   990  1184  1187    1
   991  1189  1190    1
   992  1189  1194    1
   993  1190  1191    1
   994  1190  1192    1
   995  1190  1193    1
   996  1195  1196    1
   997  1195  1200    1
   998  1196  1197    1
   999  1196  1198    1
  1000  1196  1199    1
  1001  1201  1202    1
  1002  1201  1206    1
  1003  1202  1203    1
  1004  1202  1204    1
  1005  1202  1205    1
  1006  1207  1208    1
  1007  1207  1212    1
  1008  1208  1209    1
  1009  1208  1210    1
  1010  1208  1211    1
  1011  1213  1214    1
  1012  1213  1218    1
  1013  1214  1215    1
  1014  1214  1216    1
  1015  1214  1217    1
  1016  1219  1220    1
  1017  1219  1224    1
  1018  1220  1221    1
  1019  1220  1222    1
  1020  1220  1223    1
  1021  1225  1226    1
  1022  1225  1230    1
  1023  1226  1227    1
  1024  1226  1228    1
  1025  1226  1229    1
  1026  1231  1232    1
  1027  1231  1236    1
  1028  1232  1233    1
  1029  1232  1234    1
  1030  1232  1235    1
  1031  1237  1238    1
  1032  1237  1242    1
  1033  1238  1239    1
  1034  1238  1240    1
  1035  1238  1241    1
  1036  1243  1244    1
  1037  1243  1248    1
  1038  1244  1245    1
  1039  1244  1246    1
  1040  1244  1247    1
  1041  1249  1250    1
  1042  1249  1254    1
  1043  1250  1251    1
  1044  1250  1252    1
  1045  1250  1253    1
  1046  1255  1256    1
  1047  1255  1260    1
  1048  1256  1257    1
  1049  1256  1258    1
  1050  1256  1259    1
  1051  1261  1262    1
  1052  1261  1266    1
  1053  1262  1263    1
  1054  1262  1264    1
  1055  1262  1265    1
  1056  1267  1268    1
  1057  1267  1272    1
  1058  1268  1269    1
  1059  1268  1270    1
  1060  1268  1271    1
  1061  1273  1274    1
  1062  1273  1278    1
  1063  1274  1275    1
  1064  1274  1276    1
  1065  1274  1277    1
  1066  1279  1280    1
  1067  1279  1284    1
  1068  1280  1281    1
  1069  1280  1282    1
  1070  1280  1283    1
  1071  1285  1286    1
  1072  1285  1290    1
  1073  1286  1287    1
  1074  1286  1288    1
  1075  1286  1289    1
  1076  1291  1292    1
  1077  1291  1296    1
  1078  1292  1293    1
  1079  1292  1294    1
  1080  1292  1295    1
  1081  1297  1298    1
  1082  1297  1302    1
  1083  1298  1299    1
  1084  1298  1300    1
  1085  1298  1301    1
  1086  1303  1304    1
  1087  1303  1308    1
  1088  1304  1305    1
  1089  1304  1306    1
  1090  1304  1307    1
  1091  1309  1310    1
  1092  1309  1314    1
  1093  1310  1311    1
  1094  1310  1312    1
  1095  1310  1313    1
  1096  1315  1316    1
  1097  1315  1320    1
  1098  1316  1317    1
  1099  1316  1318    1
  1100  1316  1319    1
  1101  1321  1322    1
  1102  1321  1326    1
  1103  1322  1323    1
  1104  1322  1324    1
  1105  1322  1325    1
  1106  1327  1328    1
  1107  1327  1332    1
  1108  1328  1329    1
  1109  1328  1330    1
  1110  1328  1331    1
  1111  1333  1334    1
  1112  1333  1338    1
  1113  1334  1335    1
  1114  1334  1336    1
  1115  1334  1337    1
  1116  1339  1340    1
  1117  1339  1344    1
  1118  1340  1341    1
  1119  1340  1342    1
  1120  1340  1343    1
  1121  1345  1346    1
  1122  1345  1350    1
  1123  1346  1347    1
  1124  1346  1348    1
  1125  1346  1349    1
  1126  1351  1352    1
  1127  1351  1356    1
  1128  1352  1353    1
  1129  1352  1354    1
  1130  1352  1355    1
  1131  1357  1358    1
  1132  1357  1362    1
  1133  1358  1359    1
  1134  1358  1360    1
  1135  1358  1361    1
  1136  1363  1364    1
  1137  1363  1368    1
  1138  1364  1365    1
  1139  1364  1366    1
  1140  1364  1367    1
  1141  1369  1370    1
  1142  1369  1374    1
  1143  1370  1371    1
  1144  1370  1372    1
  1145  1370  1373    1
  1146  1375  1376    1
  1147  1375  1380    1
  1148  1376  1377    1
  1149  1376  1378    1
  1150  1376  1379    1
  1151  1381  1382    1
  1152  1381  1386    1
  1153  1382  1383    1
  1154  1382  1384    1
  1155  1382  1385    1
  1156  1387  1388    1
  1157  1387  1392    1
  1158  1388  1389    1
  1159  1388  1390    1
  1160  1388  1391    1
  1161  1393  1394    1
  1162  1393  1398    1
  1163  1394  1395    1
  1164  1394  1396    1
  1165  1394  1397    1
  1166  1399  1400    1
  1167  1399  1404    1
  1168  1400  1401    1
  1169  1400  1402    1
  1170  1400  1403    1
  1171  1405  1406    1
  1172  1405  1410    1
  1173  1406  1407    1
  1174  1406  1408    1
  1175  1406  1409    1
  1176  1411  1412    1
  1177  1411  1416    1
  1178  1412  1413    1
  1179  1412  1414    1
  1180  1412  1415    1
  1181  1417  1418    1
  1182  1417  1422    1
  1183  1418  1419    1
  1184  1418  1420    1
  1185  1418  1421    1
  1186  1423  1424    1
  1187  1423  1428    1
  1188  1424  1425    1
  1189  1424  1426    1
  1190  1424  1427    1
  1191  1429  1430    1
  1192  1429  1434    1
  1193  1430  1431    1
  1194  1430  1432    1
  1195  1430  1433    1
  1196  1435  1436    1
  1197  1435  1440    1
  1198  1436  1437    1
  1199  1436  1438    1
  1200  1436  1439    1
  1201  1441  1442    1
  1202  1441  1446    1
  1203  1442  1443    1
  1204  1442  1444    1
  1205  1442  1445    1
  1206  1447  1448    1
  1207  1447  1452    1
  1208  1448  1449    1
  1209  1448  1450    1
  1210  1448  1451    1
  1211  1453  1454    1
  1212  1453  1458    1
  1213  1454  1455    1
  1214  1454  1456    1
  1215  1454  1457    1
  1216  1459  1460    1
  1217  1459  1464    1
  1218  1460  1461    1
  1219  1460  1462    1
  1220  1460  1463    1
  1221  1465  1466    1
  1222  1465  1470    1
  1223  1466  1467    1
  1224  1466  1468    1
  1225  1466  1469    1
  1226  1471  1472    1
  1227  1471  1476    1
  1228  1472  1473    1
  1229  1472  1474    1
  1230  1472  1475    1
  1231  1477  1478    1
  1232  1477  1482    1
  1233  1478  1479    1
  1234  1478  1480    1
  1235  1478  1481    1
  1236  1483  1484    1
  1237  1483  1488    1
  1238  1484  1485    1
  1239  1484  1486    1
  1240  1484  1487    1
  1241  1489  1490    1
  1242  1489  1494    1
  1243  1490  1491    1
  1244  1490  1492    1
  1245  1490  1493    1
  1246  1495  1496    1
  1247  1495  1500    1
  1248  1496  1497    1
  1249  1496  1498    1
  1250  1496  1499    1
  1251  1501  1502    1
  1252  1501  1506    1
  1253  1502  1503    1
  1254  1502  1504    1
  1255  1502  1505    1
  1256  1507  1508    1
  1257  1507  1512    1
  1258  1508  1509    1
  1259  1508  1510    1
  1260  1508  1511    1
  1261  1513  1514    1
  1262  1513  1518    1
  1263  1514  1515    1
  1264  1514  1516    1
  1265  1514  1517    1
  1266  1519  1520    1
  1267  1519  1524    1
  1268  1520  1521    1
  1269  1520  1522    1
  1270  1520  1523    1
  1271  1525  1526    1
  1272  1525  1530    1
  1273  1526  1527    1
  1274  1526  1528    1
  1275  1526  1529    1
  1276  1531  1532    1
  1277  1531  1536    1
  1278  1532  1533    1
  1279  1532  1534    1
  1280  1532  1535    1
  1281  1537  1538    1
  1282  1537  1542    1
  1283  1538  1539    1
  1284  1538  1540    1
  1285  1538  1541    1
  1286  1543  1544    1
  1287  1543  1548    1
  1288  1544  1545    1
  1289  1544  1546    1
  1290  1544  1547    1
  1291  1549  1550    1
  1292  1549  1554    1
  1293  1550  1551    1
  1294  1550  1552    1
  1295  1550  1553    1
  1296  1555  1556    1
  1297  1555  1560    1
  1298  1556  1557    1
  1299  1556  1558    1
  1300  1556  1559    1
  1301  1561  1562    1
  1302  1561  1566    1
  1303  1562  1563    1
  1304  1562  1564    1
  1305  1562  1565    1
  1306  1567  1568    1
  1307  1567  1572    1
  1308  1568  1569    1
  1309  1568  1570    1
  1310  1568  1571    1
  1311  1573  1574    1
  1312  1573  1578    1
  1313  1574  1575    1
  1314  1574  1576    1
  1315  1574  1577    1
  1316  1579  1580    1
  1317  1579  1584    1
  1318  1580  1581    1
  1319  1580  1582    1
  1320  1580  1583    1
  1321  1585  1586    1
  1322  1585  1590    1
  1323  1586  1587    1
  1324  1586  1588    1
  1325  1586  1589    1
  1326  1591  1592    1
  1327  1591  1596    1
  1328  1592  1593    1
  1329  1592  1594    1
  1330  1592  1595    1
  1331  1597  1598    1
  1332  1597  1602    1
  1333  1598  1599    1
  1334  1598  1600    1
  1335  1598  1601    1
  1336  1603  1604    1
  1337  1603  1608    1
  1338  1604  1605    1
  1339  1604  1606    1
  1340  1604  1607    1
  1341  1609  1610    1
  1342  1609  1614    1
  1343  1610  1611    1
  1344  1610  1612    1
  1345  1610  1613    1
  1346  1615  1616    1
  1347  1615  1620    1
  1348  1616  1617    1
  1349  1616  1618    1
  1350  1616  1619    1
  1351  1621  1622    1
  1352  1621  1626    1
  1353  1622  1623    1
  1354  1622  1624    1
  1355  1622  1625    1
  1356  1627  1628    1
  1357  1627  1632    1
  1358  1628  1629    1
  1359  1628  1630    1
  1360  1628  1631    1
  1361  1633  1634    1
  1362  1633  1638    1
  1363  1634  1635    1
  1364  1634  1636    1
  1365  1634  1637    1
  1366  1639  1640    1
  1367  1639  1644    1
  1368  1640  1641    1
  1369  1640  1642    1
  1370  1640  1643    1
  1371  1645  1646    1
  1372  1645  1650    1
  1373  1646  1647    1
  1374  1646  1648    1
  1375  1646  1649    1
  1376  1651  1652    1
  1377  1651  1656    1
  1378  1652  1653    1
  1379  1652  1654    1
  1380  1652  1655    1
  1381  1657  1658    1
  1382  1657  1662    1
  1383  1658  1659    1
  1384  1658  1660    1
  1385  1658  1661    1
  1386  1663  1664    1
  1387  1663  1668    1
  1388  1664  1665    1
  1389  1664  1666    1
  1390  1664  1667    1
  1391  1669  1670    1
  1392  1669  1674    1
  1393  1670  1671    1
  1394  1670  1672    1
  1395  1670  1673    1
  1396  1675  1676    1
  1397  1675  1680    1
  1398  1676  1677    1
  1399  1676  1678    1
  1400  1676  1679    1
  1401  1681  1682    1
  1402  1681  1686    1
  1403  1682  1683    1
  1404  1682  1684    1
  1405  1682  1685    1
  1406  1687  1688    1
  1407  1687  1692    1
  1408  1688  1689    1
  1409  1688  1690    1
  1410  1688  1691    1
  1411  1693  1694    1
  1412  1693  1698    1
  1413  1694  1695    1
  1414  1694  1696    1
  1415  1694  1697    1
  1416  1699  1700    1
  1417  1699  1704    1
  1418  1700  1701    1
  1419  1700  1702    1
  1420  1700  1703    1
  1421  1705  1706    1
  1422  1705  1710    1
  1423  1706  1707    1
  1424  1706  1708    1
  1425  1706  1709    1
  1426  1711  1712    1
  1427  1711  1716    1
  1428  1712  1713    1
  1429  1712  1714    1
  1430  1712  1715    1
  1431  1717  1718    1
  1432  1717  1722    1
  1433  1718  1719    1
  1434  1718  1720    1
  1435  1718  1721    1
  1436  1723  1724    1
  1437  1723  1728    1
  1438  1724  1725    1
  1439  1724  1726    1
  1440  1724  1727    1
  1441  1729  1730    1
  1442  1729  1734    1
  1443  1730  1731    1
  1444  1730  1732    1
  1445  1730  1733    1
  1446  1735  1736    1
  1447  1735  1740    1
  1448  1736  1737    1
  1449  1736  1738    1
  1450  1736  1739    1
  1451  1741  1742    1
  1452  1741  1746    1
  1453  1742  1743    1
  1454  1742  1744    1
  1455  1742  1745    1
  1456  1747  1748    1
  1457  1747  1752    1
  1458  1748  1749    1
  1459  1748  1750    1
  1460  1748  1751    1
  1461  1753  1754    1
  1462  1753  1758    1
  1463  1754  1755    1
  1464  1754  1756    1
  1465  1754  1757    1
  1466  1759  1760    1
  1467  1759  1764    1
  1468  1760  1761    1
  1469  1760  1762    1
  1470  1760  1763    1
  1471  1765  1766    1
  1472  1765  1770    1
  1473  1766  1767    1
  1474  1766  1768    1
  1475  1766  1769    1
  1476  1771  1772    1
  1477  1771  1776    1
  1478  1772  1773    1
  1479  1772  1774    1
  1480  1772  1775    1
  1481  1777  1778    1
  1482  1777  1782    1
  1483  1778  1779    1
  1484  1778  1780    1
  1485  1778  1781    1
  1486  1783  1784    1
  1487  1783  1788    1
  1488  1784  1785    1
  1489  1784  1786    1
  1490  1784  1787    1
  1491  1789  1790    1
  1492  1789  1794    1
  1493  1790  1791    1
  1494  1790  1792    1
  1495  1790  1793    1
  1496  1795  1796    1
  1497  1795  1800    1
  1498  1796  1797    1
  1499  1796  1798    1
  1500  1796  1799    1
  1501  1801  1802    1
  1502  1801  1806    1
  1503  1802  1803    1
  1504  1802  1804    1
  1505  1802  1805    1
  1506  1807  1808    1
  1507  1807  1812    1
  1508  1808  1809    1
  1509  1808  1810    1
  1510  1808  1811    1
  1511  1813  1814    1
  1512  1813  1818    1
  1513  1814  1815    1
  1514  1814  1816    1
  1515  1814  1817    1
  1516  1819  1820    1
  1517  1819  1824    1
  1518  1820  1821    1
  1519  1820  1822    1
  1520  1820  1823    1
  1521  1825  1826    1
  1522  1825  1830    1
  1523  1826  1827    1
  1524  1826  1828    1
  1525  1826  1829    1
  1526  1831  1832    1
  1527  1831  1836    1
  1528  1832  1833    1
  1529  1832  1834    1
  1530  1832  1835    1
  1531  1837  1838    1
  1532  1837  1842    1
  1533  1838  1839    1
  1534  1838  1840    1
  1535  1838  1841    1
  1536  1843  1844    1
  1537  1843  1848    1
  1538  1844  1845    1
  1539  1844  1846    1
  1540  1844  1847    1
