@<TRIPOS>MOLECULE
*****
 456 380 0 0 0
SMALL
GASTEIGER

@<TRIPOS>ATOM
      1 O           1.2983   -0.6638    4.5215 O.3     1  UNL1       -0.3982
      2 C          -0.0080   -0.2807    4.9104 C.3     1  UNL1        0.0330
      3 H          -0.3428   -0.9117    5.7374 H       1  UNL1        0.0521
      4 H          -0.6872   -0.3845    4.0607 H       1  UNL1        0.0521
      5 H           0.0094    0.7624    5.2348 H       1  UNL1        0.0521
      6 H           1.2513   -1.5930    4.2390 H       1  UNL1        0.2090
      7 O           0.0844    1.5733   14.3717 O.3     2  UNL2       -0.3982
      8 C           0.2468    0.1672   14.4020 C.3     2  UNL2        0.0330
      9 H           0.4877   -0.1944   13.3993 H       2  UNL2        0.0521
     10 H          -0.6751   -0.2993   14.7575 H       2  UNL2        0.0521
     11 H           1.0644   -0.0814   15.0828 H       2  UNL2        0.0521
     12 H          -0.6473    1.7633   13.7600 H       2  UNL2        0.2090
     13 O           0.6567    0.6568   20.4403 O.3     3  UNL3       -0.3982
     14 C           0.5281    0.4896   21.8403 C.3     3  UNL3        0.0330
     15 H           0.2632   -0.5473   22.0616 H       3  UNL3        0.0521
     16 H          -0.2446    1.1631   22.2191 H       3  UNL3        0.0521
     17 H           1.4821    0.7291   22.3158 H       3  UNL3        0.0521
     18 H          -0.2047    0.4374   20.0460 H       3  UNL3        0.2090
     19 O          -0.5165    0.7392   28.0043 O.3     4  UNL4       -0.3982
     20 C           0.6813    0.8173   28.7552 C.3     4  UNL4        0.0330
     21 H           1.5174    0.4629   28.1472 H       4  UNL4        0.0521
     22 H           0.5877    0.2067   29.6566 H       4  UNL4        0.0521
     23 H           0.8554    1.8578   29.0391 H       4  UNL4        0.0521
     24 H          -0.6444   -0.1951   27.7669 H       4  UNL4        0.2090
     25 O           1.2911    0.1804   32.9496 O.3     5  UNL5       -0.3982
     26 C          -0.0087    0.7404   32.9124 C.3     5  UNL5        0.0330
     27 H          -0.7169    0.0514   33.3793 H       5  UNL5        0.0521
     28 H          -0.2962    0.9275   31.8749 H       5  UNL5        0.0521
     29 H          -0.0049    1.6841   33.4629 H       5  UNL5        0.0521
     30 H           1.2565   -0.6551   32.4534 H       5  UNL5        0.2090
     31 O           1.4274    0.0950   39.0415 O.3     6  UNL6       -0.3982
     32 C           0.1827    0.7518   39.1959 C.3     6  UNL6        0.0330
     33 H          -0.5276    0.0787   39.6826 H       6  UNL6        0.0521
     34 H          -0.1961    1.0516   38.2157 H       6  UNL6        0.0521
     35 H           0.3240    1.6396   39.8166 H       6  UNL6        0.0521
     36 H           1.2704   -0.6880   38.4867 H       6  UNL6        0.2090
     37 O           5.2074    0.5534    4.9828 O.3     7  UNL7       -0.3982
     38 C           3.7969    0.6671    4.9360 C.3     7  UNL7        0.0330
     39 H           3.3615    0.1728    5.8080 H       7  UNL7        0.0521
     40 H           3.4237    0.2060    4.0183 H       7  UNL7        0.0521
     41 H           3.5252    1.7252    4.9461 H       7  UNL7        0.0521
     42 H           5.4180   -0.3958    4.9726 H       7  UNL7        0.2090
     43 O           4.1130    1.5733   14.3716 O.3     8  UNL8       -0.3982
     44 C           3.9516    0.1668   14.3698 C.3     8  UNL8        0.0330
     45 H           4.7866   -0.2974   14.9006 H       8  UNL8        0.0521
     46 H           3.9146   -0.1952   13.3394 H       8  UNL8        0.0521
     47 H           3.0164   -0.0842   14.8756 H       8  UNL8        0.0521
     48 H           4.9505    1.7654   13.9164 H       8  UNL8        0.2090
     49 O           4.8588    0.4074   17.0067 O.3     9  UNL9       -0.3982
     50 C           3.4692    0.6273   17.1654 C.3     9  UNL9        0.0330
     51 H           3.2842    1.1184   18.1240 H       9  UNL9        0.0521
     52 H           2.9413   -0.3287   17.1258 H       9  UNL9        0.0521
     53 H           3.1163    1.2696   16.3552 H       9  UNL9        0.0521
     54 H           5.1429   -0.1653   17.7394 H       9  UNL9        0.2090
     55 O           4.9344    0.7959   19.9910 O.3    10  UNL10      -0.3982
     56 C           3.6334    0.5891   20.5100 C.3    10  UNL10       0.0330
     57 H           3.6944   -0.0150   21.4186 H      10  UNL10       0.0521
     58 H           3.0186    0.0816   19.7628 H      10  UNL10       0.0521
     59 H           3.1879    1.5577   20.7483 H      10  UNL10       0.0521
     60 H           5.3040   -0.0805   19.7891 H      10  UNL10       0.2090
     61 O           5.1335    0.4823   29.6424 O.3    11  UNL11      -0.3982
     62 C           3.8022    0.6718   29.1993 C.3    11  UNL11       0.0330
     63 H           3.1591   -0.0964   29.6359 H      11  UNL11       0.0521
     64 H           3.7686    0.6135   28.1086 H      11  UNL11       0.0521
     65 H           3.4579    1.6577   29.5200 H      11  UNL11       0.0521
     66 H           5.4114   -0.4002   29.3432 H      11  UNL11       0.2090
     67 O           7.4981    0.0497    0.7511 O.3    12  UNL12      -0.3982
     68 C           7.8448   -0.5330    1.9940 C.3    12  UNL12       0.0330
     69 H           8.3128   -1.5058    1.8236 H      12  UNL12       0.0521
     70 H           6.9468   -0.6508    2.6053 H      12  UNL12       0.0521
     71 H           8.5503    0.1230    2.5094 H      12  UNL12       0.0521
     72 H           6.8717   -0.5544    0.3172 H      12  UNL12       0.2090
     73 O           8.5128    0.1109   14.4884 O.3    13  UNL13      -0.3982
     74 C           7.1779    0.5794   14.4324 C.3    13  UNL13       0.0330
     75 H           6.5914   -0.0666   13.7744 H      13  UNL13       0.0521
     76 H           7.1665    1.6058   14.0578 H      13  UNL13       0.0521
     77 H           6.7507    0.5560   15.4377 H      13  UNL13       0.0521
     78 H           8.8652    0.1432   13.5827 H      13  UNL13       0.2090
     79 O           6.9247    0.7253   24.3725 O.3    14  UNL14      -0.3982
     80 C           7.7007    0.6131   23.1937 C.3    14  UNL14       0.0330
     81 H           7.1377    0.0610   22.4369 H      14  UNL14       0.0521
     82 H           8.6349    0.0932   23.4195 H      14  UNL14       0.0521
     83 H           7.9249    1.6146   22.8192 H      14  UNL14       0.0521
     84 H           6.7416   -0.1784   24.6812 H      14  UNL14       0.2090
     85 O           8.8513    0.4920   32.3019 O.3    15  UNL15      -0.3982
     86 C           7.4813    0.3696   32.6376 C.3    15  UNL15       0.0330
     87 H           7.0144    1.3576   32.6330 H      15  UNL15       0.0521
     88 H           7.3870   -0.0851   33.6268 H      15  UNL15       0.0521
     89 H           6.9898   -0.2669   31.8981 H      15  UNL15       0.0521
     90 H           9.2607    1.0616   32.9753 H      15  UNL15       0.2090
     91 O          12.4195    0.7946    4.8726 O.3    16  UNL16      -0.3982
     92 C          11.0240    0.5898    4.7495 C.3    16  UNL16       0.0330
     93 H          10.6550    0.0519    5.6262 H      16  UNL16       0.0521
     94 H          10.8177    0.0156    3.8430 H      16  UNL16       0.0521
     95 H          10.5269    1.5605    4.6843 H      16  UNL16       0.0521
     96 H          12.8333   -0.0836    4.9282 H      16  UNL16       0.2090
     97 O          12.5512   -0.3122   14.0019 O.3    17  UNL17      -0.3982
     98 C          11.1975   -0.3814   13.5929 C.3    17  UNL17       0.0330
     99 H          10.6692   -1.1192   14.2019 H      17  UNL17       0.0521
    100 H          11.1486   -0.6617   12.5379 H      17  UNL17       0.0521
    101 H          10.7347    0.5989   13.7290 H      17  UNL17       0.0521
    102 H          12.9351   -1.1957   13.8697 H      17  UNL17       0.2090
    103 O          11.2126    0.3226   19.3077 O.3    18  UNL18      -0.3982
    104 C          11.2388    0.4879   20.7136 C.3    18  UNL18       0.0330
    105 H          11.4991    1.5215   20.9550 H      18  UNL18       0.0521
    106 H          11.9730   -0.1949   21.1480 H      18  UNL18       0.0521
    107 H          10.2493    0.2600   21.1167 H      18  UNL18       0.0521
    108 H          12.1035    0.5316   18.9788 H      18  UNL18       0.2090
    109 O          12.5863    0.1944   29.7575 O.3    19  UNL19      -0.3982
    110 C          11.2093    0.4952   29.8913 C.3    19  UNL19       0.0330
    111 H          10.6485    0.0020   29.0935 H      19  UNL19       0.0521
    112 H          11.0649    1.5769   29.8378 H      19  UNL19       0.0521
    113 H          10.8584    0.1304   30.8596 H      19  UNL19       0.0521
    114 H          12.8690    0.5298   28.8897 H      19  UNL19       0.2090
    115 O          12.3397   -0.4479   35.4488 O.3    20  UNL20      -0.3982
    116 C          11.1204   -0.3417   36.1604 C.3    20  UNL20       0.0330
    117 H          11.1096   -1.0680   36.9770 H      20  UNL20       0.0521
    118 H          10.2842   -0.5277   35.4821 H      20  UNL20       0.0521
    119 H          11.0357    0.6669   36.5716 H      20  UNL20       0.0521
    120 H          12.3867   -1.3528   35.0959 H      20  UNL20       0.2090
    121 O          15.6923   -0.5101   20.3734 O.3    21  UNL21      -0.3982
    122 C          14.2795   -0.4359   20.4269 C.3    21  UNL21       0.0330
    123 H          13.9025   -1.1637   21.1497 H      21  UNL21       0.0521
    124 H          13.8653   -0.6416   19.4369 H      21  UNL21       0.0521
    125 H          13.9880    0.5695   20.7396 H      21  UNL21       0.0521
    126 H          15.9206   -1.4128   20.0933 H      21  UNL21       0.2090
    127 O          15.9825    0.6612    1.3023 O.3    22  UNL22      -0.3982
    128 C          14.6092    0.6195    1.6443 C.3    22  UNL22       0.0330
    129 H          14.4334   -0.1952    2.3511 H      22  UNL22       0.0521
    130 H          14.0125    0.4682    0.7415 H      22  UNL22       0.0521
    131 H          14.3297    1.5683    2.1084 H      22  UNL22       0.0521
    132 H          16.2010   -0.1933    0.8930 H      22  UNL22       0.2090
    133 O          16.3240   -0.3617   13.9170 O.3    23  UNL23      -0.3982
    134 C          14.9169   -0.3754   14.0732 C.3    23  UNL23       0.0330
    135 H          14.6301   -1.2017   14.7284 H      23  UNL23       0.0521
    136 H          14.4420   -0.4898   13.0958 H      23  UNL23       0.0521
    137 H          14.5999    0.5691   14.5216 H      23  UNL23       0.0521
    138 H          16.5753   -1.2117   13.5173 H      23  UNL23       0.2090
    139 O          14.0733    0.4497   23.0275 O.3    24  UNL24      -0.3982
    140 C          12.8083    0.6972   23.6132 C.3    24  UNL24       0.0330
    141 H          12.7848    0.2785   24.6224 H      24  UNL24       0.0521
    142 H          12.0267    0.2422   23.0000 H      24  UNL24       0.0521
    143 H          12.6458    1.7764   23.6649 H      24  UNL24       0.0521
    144 H          14.1892   -0.5152   22.9950 H      24  UNL24       0.2090
    145 O          16.0368    0.4120   26.9712 O.3    25  UNL25      -0.3982
    146 C          14.8658    0.6894   26.2255 C.3    25  UNL25       0.0330
    147 H          13.9993    0.6865   26.8915 H      25  UNL25       0.0521
    148 H          14.7419   -0.0660   25.4457 H      25  UNL25       0.0521
    149 H          14.9640    1.6744   25.7631 H      25  UNL25       0.0521
    150 H          15.9204   -0.4675   27.3693 H      25  UNL25       0.2090
    151 O          16.2493    0.1521   32.4176 O.3    26  UNL26      -0.3982
    152 C          14.9670    0.4788   32.9212 C.3    26  UNL26       0.0330
    153 H          14.2021    0.1520   32.2124 H      26  UNL26       0.0521
    154 H          14.8992    1.5585   33.0748 H      26  UNL26       0.0521
    155 H          14.8190   -0.0328   33.8751 H      26  UNL26       0.0521
    156 H          16.3517    0.6202   31.5715 H      26  UNL26       0.2090
    157 O          15.9359    1.0652   38.7104 O.3    27  UNL27      -0.3982
    158 C          14.7294    0.4835   39.1691 C.3    27  UNL27       0.0330
    159 H          14.8753    0.0864   40.1768 H      27  UNL27       0.0521
    160 H          14.4292   -0.3181   38.4900 H      27  UNL27       0.0521
    161 H          13.9513    1.2500   39.1911 H      27  UNL27       0.0521
    162 H          16.6071    0.3616   38.7016 H      27  UNL27       0.2090
    163 O          19.7324    0.8960    4.4076 O.3    28  UNL28      -0.3982
    164 C          18.4564    0.5541    4.9169 C.3    28  UNL28       0.0330
    165 H          18.5729   -0.0122    5.8442 H      28  UNL28       0.0521
    166 H          17.9163   -0.0430    4.1781 H      28  UNL28       0.0521
    167 H          17.8976    1.4707    5.1201 H      28  UNL28       0.0521
    168 H          20.2044    0.0632    4.2370 H      28  UNL28       0.2090
    169 O          20.0307   -0.3795   13.7672 O.3    29  UNL29      -0.3982
    170 C          18.6184   -0.3597   13.6707 C.3    29  UNL29       0.0330
    171 H          18.1936   -1.0717   14.3828 H      29  UNL29       0.0521
    172 H          18.3181   -0.6223   12.6535 H      29  UNL29       0.0521
    173 H          18.2602    0.6452   13.9061 H      29  UNL29       0.0521
    174 H          20.3191   -1.2832   13.5532 H      29  UNL29       0.2090
    175 O          19.1528    1.3069   16.5961 O.3    30  UNL30      -0.3982
    176 C          18.3913    0.3819   17.3504 C.3    30  UNL30       0.0330
    177 H          19.0632   -0.2872   17.8937 H      30  UNL30       0.0521
    178 H          17.7490   -0.1947   16.6803 H      30  UNL30       0.0521
    179 H          17.7713    0.9301   18.0636 H      30  UNL30       0.0521
    180 H          19.6923    0.7916   15.9725 H      30  UNL30       0.2090
    181 O          19.2152    1.4534   20.0931 O.3    31  UNL31      -0.3982
    182 C          18.5579    0.2986   20.5819 C.3    31  UNL31       0.0330
    183 H          19.2926   -0.3828   21.0181 H      31  UNL31       0.0521
    184 H          18.0288   -0.1947   19.7630 H      31  UNL31       0.0521
    185 H          17.8399    0.5967   21.3495 H      31  UNL31       0.0521
    186 H          19.8455    1.1575   19.4142 H      31  UNL31       0.2090
    187 O          19.9795    0.7998   29.9224 O.3    32  UNL32      -0.3982
    188 C          18.5941    0.5476   29.7750 C.3    32  UNL32       0.0330
    189 H          18.3605   -0.4469   30.1630 H      32  UNL32       0.0521
    190 H          18.3217    0.6116   28.7187 H      32  UNL32       0.0521
    191 H          18.0345    1.2973   30.3393 H      32  UNL32       0.0521
    192 H          20.4497    0.1194   29.4111 H      32  UNL32       0.2090
    193 O          19.2580    1.2614   35.5092 O.3    33  UNL33      -0.3982
    194 C          18.3477    0.4043   36.1734 C.3    33  UNL33       0.0330
    195 H          18.8938   -0.2466   36.8608 H      33  UNL33       0.0521
    196 H          17.8081   -0.1964   35.4372 H      33  UNL33       0.0521
    197 H          17.6357    1.0110   36.7378 H      33  UNL33       0.0521
    198 H          19.8768    0.6950   35.0174 H      33  UNL33       0.2090
    199 O          23.3219   -0.9450   20.8487 O.3    34  UNL34      -0.3982
    200 C          21.9766   -0.9015   20.4096 C.3    34  UNL34       0.0330
    201 H          21.7473   -1.8084   19.8445 H      34  UNL34       0.0521
    202 H          21.8257   -0.0201   19.7816 H      34  UNL34       0.0521
    203 H          21.3202   -0.8421   21.2809 H      34  UNL34       0.0521
    204 H          23.8802   -0.9974   20.0543 H      34  UNL34       0.2090
    205 O          23.1107   -0.8779   36.0186 O.3    35  UNL35      -0.3982
    206 C          21.7029   -0.7355   35.9695 C.3    35  UNL35       0.0330
    207 H          21.2467   -1.3431   36.7550 H      35  UNL35       0.0521
    208 H          21.3376   -1.0533   34.9899 H      35  UNL35       0.0521
    209 H          21.4462    0.3144   36.1286 H      35  UNL35       0.0521
    210 H          23.3078   -1.8191   35.8742 H      35  UNL35       0.2090
    211 O          23.3837    0.7009    1.7517 O.3    36  UNL36      -0.3982
    212 C          22.0174    0.6175    1.3903 C.3    36  UNL36       0.0330
    213 H          21.4343    0.2658    2.2451 H      36  UNL36       0.0521
    214 H          21.9033   -0.0712    0.5497 H      36  UNL36       0.0521
    215 H          21.6665    1.6094    1.0960 H      36  UNL36       0.0521
    216 H          23.6666   -0.1935    2.0077 H      36  UNL36       0.2090
    217 O          23.7391   -0.3513   14.0440 O.3    37  UNL37      -0.3982
    218 C          22.3237   -0.3806   14.0378 C.3    37  UNL37       0.0330
    219 H          21.9731   -1.2246   14.6369 H      37  UNL37       0.0521
    220 H          21.9649   -0.4755   13.0100 H      37  UNL37       0.0521
    221 H          21.9472    0.5503   14.4682 H      37  UNL37       0.0521
    222 H          24.0439   -1.1895   13.6565 H      37  UNL37       0.2090
    223 O          21.5564    0.6169   23.4167 O.3    38  UNL38      -0.3982
    224 C          20.1547    0.4649   23.2871 C.3    38  UNL38       0.0330
    225 H          19.9327   -0.5052   22.8354 H      38  UNL38       0.0521
    226 H          19.7563    1.2689   22.6636 H      38  UNL38       0.0521
    227 H          19.6987    0.5156   24.2786 H      38  UNL38       0.0521
    228 H          21.9330    0.5676   22.5215 H      38  UNL38       0.2090
    229 O          23.3971    0.7016   26.2661 O.3    39  UNL39      -0.3982
    230 C          22.0109    0.6169   26.5413 C.3    39  UNL39       0.0330
    231 H          21.8442   -0.0786   27.3676 H      39  UNL39       0.0521
    232 H          21.4818    0.2730   25.6492 H      39  UNL39       0.0521
    233 H          21.6431    1.6068   26.8213 H      39  UNL39       0.0521
    234 H          23.6947   -0.1911   26.0208 H      39  UNL39       0.2090
    235 O          23.3702    0.7298   32.9521 O.3    40  UNL40      -0.3982
    236 C          22.0259    0.6012   32.5271 C.3    40  UNL40       0.0330
    237 H          21.3915    0.3705   33.3866 H      40  UNL40       0.0521
    238 H          21.9528   -0.1952   31.7826 H      40  UNL40       0.0521
    239 H          21.7024    1.5446   32.0812 H      40  UNL40       0.0521
    240 H          23.6290   -0.1221   33.3431 H      40  UNL40       0.2090
    241 O          23.5627    0.3242   39.2698 O.3    41  UNL41      -0.3982
    242 C          22.1578    0.4867   39.2038 C.3    41  UNL41       0.0330
    243 H          21.7460   -0.1945   38.4550 H      41  UNL41       0.0521
    244 H          21.9218    1.5206   38.9404 H      41  UNL41       0.0521
    245 H          21.7270    0.2545   40.1806 H      41  UNL41       0.0521
    246 H          23.9166    0.5371   38.3895 H      41  UNL41       0.2090
    247 O          27.0740    0.5800    4.1241 O.3    42  UNL42      -0.3982
    248 C          25.9402    0.6581    4.9684 C.3    42  UNL42       0.0330
    249 H          26.1924    0.2641    5.9561 H      42  UNL42       0.0521
    250 H          25.1203    0.0818    4.5330 H      42  UNL42       0.0521
    251 H          25.6382    1.7038    5.0619 H      42  UNL42       0.0521
    252 H          27.3185   -0.3590    4.0602 H      42  UNL42       0.2090
    253 O          27.4519   -0.3847   13.7286 O.3    43  UNL43      -0.3982
    254 C          26.0372   -0.3577   13.6813 C.3    43  UNL43       0.0330
    255 H          25.6337   -1.0615   14.4135 H      43  UNL43       0.0521
    256 H          25.7002   -0.6268   12.6773 H      43  UNL43       0.0521
    257 H          25.6929    0.6511   13.9206 H      43  UNL43       0.0521
    258 H          27.7278   -1.2917   13.5121 H      43  UNL43       0.2090
    259 O          26.1178    1.4267   16.5463 O.3    44  UNL44      -0.3982
    260 C          25.9849    0.1235   17.0834 C.3    44  UNL44       0.0330
    261 H          25.2110    0.1236   17.8550 H      44  UNL44       0.0521
    262 H          26.9393   -0.1950   17.5095 H      44  UNL44       0.0521
    263 H          25.6984   -0.5630   16.2833 H      44  UNL44       0.0521
    264 H          26.3724    2.0131   17.2790 H      44  UNL44       0.2090
    265 O          27.1197    0.9416   20.1331 O.3    45  UNL45      -0.3982
    266 C          25.9375    0.5036   20.7772 C.3    45  UNL45       0.0330
    267 H          26.1029   -0.4857   21.2111 H      45  UNL45       0.0521
    268 H          25.1203    0.4636   20.0529 H      45  UNL45       0.0521
    269 H          25.6832    1.2095   21.5714 H      45  UNL45       0.0521
    270 H          27.3202    0.2961   19.4341 H      45  UNL45       0.2090
    271 O          26.9658    0.9756   29.3831 O.3    46  UNL46      -0.3982
    272 C          25.7326    0.5162   29.9054 C.3    46  UNL46       0.0330
    273 H          25.9144   -0.3077   30.6000 H      46  UNL46       0.0521
    274 H          25.0911    0.1816   29.0865 H      46  UNL46       0.0521
    275 H          25.2439    1.3364   30.4364 H      46  UNL46       0.0521
    276 H          27.3758    0.2266   28.9179 H      46  UNL46       0.2090
    277 O          26.2126    0.3882   35.2043 O.3    47  UNL47      -0.3982
    278 C          25.9033    0.3488   36.5854 C.3    47  UNL47       0.0330
    279 H          25.3309    1.2392   36.8571 H      47  UNL47       0.0521
    280 H          26.8282    0.3060   37.1657 H      47  UNL47       0.0521
    281 H          25.3057   -0.5425   36.7903 H      47  UNL47       0.0521
    282 H          26.7429    1.1891   35.0531 H      47  UNL47       0.2090
    283 O          28.8024   -1.9074   10.9795 O.3    48  UNL48      -0.3982
    284 C          27.5785   -1.2433   10.7237 C.3    48  UNL48       0.0330
    285 H          27.7680   -0.3416   10.1360 H      48  UNL48       0.0521
    286 H          27.1009   -0.9802   11.6706 H      48  UNL48       0.0521
    287 H          26.9226   -1.9114   10.1606 H      48  UNL48       0.0521
    288 H          29.3631   -1.2905   11.4799 H      48  UNL48       0.2090
    289 O          30.7624   -0.4949   16.8692 O.3    49  UNL49      -0.3982
    290 C          29.4011   -0.8837   16.8560 C.3    49  UNL49       0.0330
    291 H          29.0441   -0.9987   17.8825 H      49  UNL49       0.0521
    292 H          29.2959   -1.8269   16.3145 H      49  UNL49       0.0521
    293 H          28.8156   -0.1103   16.3534 H      49  UNL49       0.0521
    294 H          31.2565   -1.2000   17.3210 H      49  UNL49       0.2090
    295 O          30.8246   -0.9658   20.5773 O.3    50  UNL50      -0.3982
    296 C          29.4601   -0.9470   20.2001 C.3    50  UNL50       0.0330
    297 H          28.8349   -0.8798   21.0939 H      50  UNL50       0.0521
    298 H          29.2224   -1.8570   19.6438 H      50  UNL50       0.0521
    299 H          29.2789   -0.0766   19.5651 H      50  UNL50       0.0521
    300 H          30.9548   -1.7484   21.1395 H      50  UNL50       0.2090
    301 O          30.4954   -0.6656   36.0606 O.3    51  UNL51      -0.3982
    302 C          29.0924   -0.7995   35.9263 C.3    51  UNL51       0.0330
    303 H          28.6962   -1.3629   36.7748 H      51  UNL51       0.0521
    304 H          28.8628   -1.3178   34.9921 H      51  UNL51       0.0521
    305 H          28.6406    0.1950   35.9091 H      51  UNL51       0.0521
    306 H          30.8682   -1.5636   36.0728 H      51  UNL51       0.2090
    307 O          30.7977    0.7160    1.7521 O.3    52  UNL52      -0.3982
    308 C          29.4310    0.6138    1.3969 C.3    52  UNL52       0.0330
    309 H          28.8621    0.2203    2.2429 H      52  UNL52       0.0521
    310 H          29.3265   -0.0485    0.5341 H      52  UNL52       0.0521
    311 H          29.0559    1.6069    1.1386 H      52  UNL52       0.0521
    312 H          31.1025   -0.1799    1.9759 H      52  UNL52       0.2090
    313 O          31.1671   -0.4265   13.9618 O.3    53  UNL53      -0.3982
    314 C          29.7577   -0.3682   14.0836 C.3    53  UNL53       0.0330
    315 H          29.3999   -1.2544   14.6137 H      53  UNL53       0.0521
    316 H          29.3070   -0.3185   13.0894 H      53  UNL53       0.0521
    317 H          29.4867    0.5263   14.6492 H      53  UNL53       0.0521
    318 H          31.3771   -1.2299   13.4558 H      53  UNL53       0.2090
    319 O          28.2454    1.4449   22.7622 O.3    54  UNL54      -0.3982
    320 C          28.0171    0.1683   23.3304 C.3    54  UNL54       0.0330
    321 H          27.5706   -0.4904   22.5813 H      54  UNL54       0.0521
    322 H          27.3496    0.2653   24.1900 H      54  UNL54       0.0521
    323 H          28.9714   -0.2505   23.6583 H      54  UNL54       0.0521
    324 H          27.3814    1.7910   22.4808 H      54  UNL54       0.2090
    325 O          30.3060    0.7093   27.3605 O.3    55  UNL55      -0.3982
    326 C          29.6032    0.6173   26.1349 C.3    55  UNL55       0.0330
    327 H          28.6171    0.1805   26.3112 H      55  UNL55       0.0521
    328 H          30.1686   -0.0032   25.4354 H      55  UNL55       0.0521
    329 H          29.4858    1.6197   25.7166 H      55  UNL55       0.0521
    330 H          30.3948   -0.1948   27.7075 H      55  UNL55       0.2090
    331 O          30.6721    1.0744   32.4716 O.3    56  UNL56      -0.3982
    332 C          29.3924    0.4852   32.3304 C.3    56  UNL56       0.0330
    333 H          29.2090   -0.1943   33.1664 H      56  UNL56       0.0521
    334 H          29.3441   -0.0612   31.3854 H      56  UNL56       0.0521
    335 H          28.6362    1.2737   32.3320 H      56  UNL56       0.0521
    336 H          31.3218    0.3509   32.4668 H      56  UNL56       0.2090
    337 O          31.0022    0.3963   38.9753 O.3    57  UNL57      -0.3982
    338 C          29.6168    0.4056   39.2668 C.3    57  UNL57       0.0330
    339 H          29.0667   -0.0528   38.4412 H      57  UNL57       0.0521
    340 H          29.2816    1.4350   39.4150 H      57  UNL57       0.0521
    341 H          29.4422   -0.1672   40.1806 H      57  UNL57       0.0521
    342 H          31.1261    0.9119   38.1601 H      57  UNL57       0.2090
    343 O          34.4613    0.9111    4.2222 O.3    58  UNL58      -0.3982
    344 C          33.3068    0.5449    4.9554 C.3    58  UNL58       0.0330
    345 H          33.6040    0.1341    5.9235 H      58  UNL58       0.0521
    346 H          32.7367   -0.1976    4.3919 H      58  UNL58       0.0521
    347 H          32.6895    1.4325    5.1127 H      58  UNL58       0.0521
    348 H          34.9890    0.1038    4.0982 H      58  UNL58       0.2090
    349 O          34.8291   -0.3182   13.9180 O.3    59  UNL59      -0.3982
    350 C          33.4471   -0.3782   13.6165 C.3    59  UNL59       0.0330
    351 H          32.9590   -1.0952   14.2814 H      59  UNL59       0.0521
    352 H          33.3133   -0.6811   12.5752 H      59  UNL59       0.0521
    353 H          33.0077    0.6109   13.7653 H      59  UNL59       0.0521
    354 H          35.1913   -1.2095   13.7769 H      59  UNL59       0.2090
    355 O          34.4867    0.8396   17.2629 O.3    60  UNL60      -0.3982
    356 C          33.1756    0.3064   17.2249 C.3    60  UNL60       0.0330
    357 H          33.0987   -0.4162   16.4087 H      60  UNL60       0.0521
    358 H          32.4563    1.1158   17.0781 H      60  UNL60       0.0521
    359 H          32.9683   -0.1948   18.1732 H      60  UNL60       0.0521
    360 H          34.6418    1.2778   16.4088 H      60  UNL60       0.2090
    361 O          34.4781    0.7270   19.8902 O.3    61  UNL61      -0.3982
    362 C          33.4048    0.5951   20.8041 C.3    61  UNL61       0.0330
    363 H          33.5830   -0.2643   21.4553 H      61  UNL61       0.0521
    364 H          32.4706    0.4610   20.2533 H      61  UNL61       0.0521
    365 H          33.3409    1.5018   21.4102 H      61  UNL61       0.0521
    366 H          34.5099   -0.0918   19.3667 H      61  UNL61       0.2090
    367 O          34.3742    0.8634   29.2447 O.3    62  UNL62      -0.3982
    368 C          33.1547    0.5656   29.8994 C.3    62  UNL62       0.0330
    369 H          33.3540   -0.0482   30.7814 H      62  UNL62       0.0521
    370 H          32.4925    0.0323   29.2132 H      62  UNL62       0.0521
    371 H          32.6799    1.4999   30.2081 H      62  UNL62       0.0521
    372 H          34.7721    0.0157   28.9826 H      62  UNL62       0.2090
    373 O          33.4937    0.4828   35.1883 O.3    63  UNL63      -0.3982
    374 C          33.3500    0.3281   36.5883 C.3    63  UNL63       0.0330
    375 H          32.8731    1.2177   37.0071 H      63  UNL63       0.0521
    376 H          34.3330    0.1807   37.0421 H      63  UNL63       0.0521
    377 H          32.7248   -0.5455   36.7869 H      63  UNL63       0.0521
    378 H          34.0528    1.2650   35.0432 H      63  UNL63       0.2090
    379 O          38.1100   -0.2990   17.2597 O.3    64  UNL64      -0.3982
    380 C          36.8322   -0.8584   17.0170 C.3    64  UNL64       0.0330
    381 H          36.9390   -1.9152   16.7596 H      64  UNL64       0.0521
    382 H          36.3474   -0.3203   16.1988 H      64  UNL64       0.0521
    383 H          36.2260   -0.7653   17.9211 H      64  UNL64       0.0521
    384 H          38.6247   -0.3962   16.4404 H      64  UNL64       0.2090
    385 O          37.9223   -0.6851   35.9695 O.3    65  UNL65      -0.3982
    386 C          36.5119   -0.7963   35.9152 C.3    65  UNL65       0.0330
    387 H          36.1372   -1.1635   36.8739 H      65  UNL65       0.0521
    388 H          36.2304   -1.4843   35.1143 H      65  UNL65       0.0521
    389 H          36.0853    0.1889   35.7129 H      65  UNL65       0.0521
    390 H          38.2722   -1.5742   36.1501 H      65  UNL65       0.2090
    391 O          37.6939    1.4203    1.2823 O.3    66  UNL66      -0.3982
    392 C          36.8934    0.3195    1.6721 C.3    66  UNL66       0.0330
    393 H          37.4873   -0.3667    2.2810 H      66  UNL66       0.0521
    394 H          36.5213   -0.1946    0.7826 H      66  UNL66       0.0521
    395 H          36.0478    0.6854    2.2592 H      66  UNL66       0.0521
    396 H          38.4355    1.0648    0.7635 H      66  UNL66       0.2090
    397 O          38.5762   -0.3768   13.5725 O.3    67  UNL67      -0.3982
    398 C          37.1700   -0.3621   13.7366 C.3    67  UNL67       0.0330
    399 H          36.8829   -1.0954   14.4943 H      67  UNL67       0.0521
    400 H          36.6887   -0.5985   12.7845 H      67  UNL67       0.0521
    401 H          36.8606    0.6342   14.0613 H      67  UNL67       0.0521
    402 H          38.8208   -1.2727   13.2843 H      67  UNL67       0.2090
    403 O          36.2708    0.9899   23.7427 O.3    68  UNL68      -0.3982
    404 C          35.0508    0.2854   23.6018 C.3    68  UNL68       0.0330
    405 H          35.1813   -0.5321   22.8883 H      68  UNL68       0.0521
    406 H          34.2730    0.9683   23.2515 H      68  UNL68       0.0521
    407 H          34.7627   -0.1241   24.5729 H      68  UNL68       0.0521
    408 H          36.5006    1.3413   22.8657 H      68  UNL68       0.2090
    409 O          38.2556    0.3904   26.3150 O.3    69  UNL69      -0.3982
    410 C          36.8875    0.4629   26.6717 C.3    69  UNL69       0.0330
    411 H          36.3124   -0.2349   26.0580 H      69  UNL69       0.0521
    412 H          36.5242    1.4824   26.5206 H      69  UNL69       0.0521
    413 H          36.7800    0.1926   27.7248 H      69  UNL69       0.0521
    414 H          38.3195    0.6354   25.3761 H      69  UNL69       0.2090
    415 O          37.8691    1.3143   32.5173 O.3    70  UNL70      -0.3982
    416 C          36.8447    0.3767   32.7930 C.3    70  UNL70       0.0330
    417 H          37.1991   -0.3442   33.5340 H      70  UNL70       0.0521
    418 H          36.5645   -0.1396   31.8717 H      70  UNL70       0.0521
    419 H          35.9756    0.9065   33.1899 H      70  UNL70       0.0521
    420 H          38.6264    0.8151   32.1667 H      70  UNL70       0.2090
    421 O          38.3776    0.2004   39.2275 O.3    71  UNL71      -0.3982
    422 C          36.9988    0.5216   39.2160 C.3    71  UNL71       0.0330
    423 H          36.4887   -0.0848   38.4634 H      71  UNL71       0.0521
    424 H          36.8730    1.5833   38.9902 H      71  UNL71       0.0521
    425 H          36.5761    0.3081   40.2005 H      71  UNL71       0.0521
    426 H          38.7249    0.4002   38.3414 H      71  UNL71       0.2090
    427 O          41.5365   -0.5460    1.9946 O.3    72  UNL72      -0.3982
    428 C          40.2018   -0.8649    1.6460 C.3    72  UNL72       0.0330
    429 H          39.9104   -1.7989    2.1329 H      72  UNL72       0.0521
    430 H          40.1221   -0.9668    0.5610 H      72  UNL72       0.0521
    431 H          39.5445   -0.0601    1.9834 H      72  UNL72       0.0521
    432 H          42.0958   -1.2777    1.6826 H      72  UNL72       0.2090
    433 O          42.1285    0.5283    4.6587 O.3    73  UNL73      -0.3982
    434 C          40.7281    0.6741    4.8075 C.3    73  UNL73       0.0330
    435 H          40.4192    0.2681    5.7739 H      73  UNL73       0.0521
    436 H          40.2179    0.1457    3.9984 H      73  UNL73       0.0521
    437 H          40.4747    1.7359    4.7630 H      73  UNL73       0.0521
    438 H          42.3229   -0.4234    4.7023 H      73  UNL73       0.2090
    439 O          40.6980    1.4465   14.3626 O.3    74  UNL74      -0.3982
    440 C          41.2006    0.1229   14.3617 C.3    74  UNL74       0.0330
    441 H          42.1231    0.0821   14.9461 H      74  UNL74       0.0521
    442 H          41.3935   -0.1938   13.3338 H      74  UNL74       0.0521
    443 H          40.4573   -0.5397   14.8113 H      74  UNL74       0.0521
    444 H          41.3787    2.0108   13.9580 H      74  UNL74       0.2090
    445 O          42.3478    0.3810   20.8317 O.3    75  UNL75      -0.3982
    446 C          41.1232    0.7106   20.2022 C.3    75  UNL75       0.0330
    447 H          40.2965    0.5278   20.8931 H      75  UNL75       0.0521
    448 H          41.0005    0.1038   19.3017 H      75  UNL75       0.0521
    449 H          41.1383    1.7678   19.9272 H      75  UNL75       0.0521
    450 H          42.3048   -0.5623   21.0639 H      75  UNL75       0.2090
    451 O          41.9242    0.4034   30.0437 O.3    76  UNL76      -0.3982
    452 C          40.5295    0.4411   29.8034 C.3    76  UNL76       0.0330
    453 H          40.2890   -0.1943   28.9473 H      76  UNL76       0.0521
    454 H          40.2207    1.4703   29.6050 H      76  UNL76       0.0521
    455 H          40.0064    0.0702   30.6879 H      76  UNL76       0.0521
    456 H          42.3614    0.7380   29.2421 H      76  UNL76       0.2090
@<TRIPOS>BOND
     1     1     2    1
     2     1     6    1
     3     2     3    1
     4     2     4    1
     5     2     5    1
     6     7     8    1
     7     7    12    1
     8     8     9    1
     9     8    10    1
    10     8    11    1
    11    13    14    1
    12    13    18    1
    13    14    15    1
    14    14    16    1
    15    14    17    1
    16    19    20    1
    17    19    24    1
    18    20    21    1
    19    20    22    1
    20    20    23    1
    21    25    26    1
    22    25    30    1
    23    26    27    1
    24    26    28    1
    25    26    29    1
    26    31    32    1
    27    31    36    1
    28    32    33    1
    29    32    34    1
    30    32    35    1
    31    37    38    1
    32    37    42    1
    33    38    39    1
    34    38    40    1
    35    38    41    1
    36    43    44    1
    37    43    48    1
    38    44    45    1
    39    44    46    1
    40    44    47    1
    41    49    50    1
    42    49    54    1
    43    50    51    1
    44    50    52    1
    45    50    53    1
    46    55    56    1
    47    55    60    1
    48    56    57    1
    49    56    58    1
    50    56    59    1
    51    61    62    1
    52    61    66    1
    53    62    63    1
    54    62    64    1
    55    62    65    1
    56    67    68    1
    57    67    72    1
    58    68    69    1
    59    68    70    1
    60    68    71    1
    61    73    74    1
    62    73    78    1
    63    74    75    1
    64    74    76    1
    65    74    77    1
    66    79    80    1
    67    79    84    1
    68    80    81    1
    69    80    82    1
    70    80    83    1
    71    85    86    1
    72    85    90    1
    73    86    87    1
    74    86    88    1
    75    86    89    1
    76    91    92    1
    77    91    96    1
    78    92    93    1
    79    92    94    1
    80    92    95    1
    81    97    98    1
    82    97   102    1
    83    98    99    1
    84    98   100    1
    85    98   101    1
    86   103   104    1
    87   103   108    1
    88   104   105    1
    89   104   106    1
    90   104   107    1
    91   109   110    1
    92   109   114    1
    93   110   111    1
    94   110   112    1
    95   110   113    1
    96   115   116    1
    97   115   120    1
    98   116   117    1
    99   116   118    1
   100   116   119    1
   101   121   122    1
   102   121   126    1
   103   122   123    1
   104   122   124    1
   105   122   125    1
   106   127   128    1
   107   127   132    1
   108   128   129    1
   109   128   130    1
   110   128   131    1
   111   133   134    1
   112   133   138    1
   113   134   135    1
   114   134   136    1
   115   134   137    1
   116   139   140    1
   117   139   144    1
   118   140   141    1
   119   140   142    1
   120   140   143    1
   121   145   146    1
   122   145   150    1
   123   146   147    1
   124   146   148    1
   125   146   149    1
   126   151   152    1
   127   151   156    1
   128   152   153    1
   129   152   154    1
   130   152   155    1
   131   157   158    1
   132   157   162    1
   133   158   159    1
   134   158   160    1
   135   158   161    1
   136   163   164    1
   137   163   168    1
   138   164   165    1
   139   164   166    1
   140   164   167    1
   141   169   170    1
   142   169   174    1
   143   170   171    1
   144   170   172    1
   145   170   173    1
   146   175   176    1
   147   175   180    1
   148   176   177    1
   149   176   178    1
   150   176   179    1
   151   181   182    1
   152   181   186    1
   153   182   183    1
   154   182   184    1
   155   182   185    1
   156   187   188    1
   157   187   192    1
   158   188   189    1
   159   188   190    1
   160   188   191    1
   161   193   194    1
   162   193   198    1
   163   194   195    1
   164   194   196    1
   165   194   197    1
   166   199   200    1
   167   199   204    1
   168   200   201    1
   169   200   202    1
   170   200   203    1
   171   205   206    1
   172   205   210    1
   173   206   207    1
   174   206   208    1
   175   206   209    1
   176   211   212    1
   177   211   216    1
   178   212   213    1
   179   212   214    1
   180   212   215    1
   181   217   218    1
   182   217   222    1
   183   218   219    1
   184   218   220    1
   185   218   221    1
   186   223   224    1
   187   223   228    1
   188   224   225    1
   189   224   226    1
   190   224   227    1
   191   229   230    1
   192   229   234    1
   193   230   231    1
   194   230   232    1
   195   230   233    1
   196   235   236    1
   197   235   240    1
   198   236   237    1
   199   236   238    1
   200   236   239    1
   201   241   242    1
   202   241   246    1
   203   242   243    1
   204   242   244    1
   205   242   245    1
   206   247   248    1
   207   247   252    1
   208   248   249    1
   209   248   250    1
   210   248   251    1
   211   253   254    1
   212   253   258    1
   213   254   255    1
   214   254   256    1
   215   254   257    1
   216   259   260    1
   217   259   264    1
   218   260   261    1
   219   260   262    1
   220   260   263    1
   221   265   266    1
   222   265   270    1
   223   266   267    1
   224   266   268    1
   225   266   269    1
   226   271   272    1
   227   271   276    1
   228   272   273    1
   229   272   274    1
   230   272   275    1
   231   277   278    1
   232   277   282    1
   233   278   279    1
   234   278   280    1
   235   278   281    1
   236   283   284    1
   237   283   288    1
   238   284   285    1
   239   284   286    1
   240   284   287    1
   241   289   290    1
   242   289   294    1
   243   290   291    1
   244   290   292    1
   245   290   293    1
   246   295   296    1
   247   295   300    1
   248   296   297    1
   249   296   298    1
   250   296   299    1
   251   301   302    1
   252   301   306    1
   253   302   303    1
   254   302   304    1
   255   302   305    1
   256   307   308    1
   257   307   312    1
   258   308   309    1
   259   308   310    1
   260   308   311    1
   261   313   314    1
   262   313   318    1
   263   314   315    1
   264   314   316    1
   265   314   317    1
   266   319   320    1
   267   319   324    1
   268   320   321    1
   269   320   322    1
   270   320   323    1
   271   325   326    1
   272   325   330    1
   273   326   327    1
   274   326   328    1
   275   326   329    1
   276   331   332    1
   277   331   336    1
   278   332   333    1
   279   332   334    1
   280   332   335    1
   281   337   338    1
   282   337   342    1
   283   338   339    1
   284   338   340    1
   285   338   341    1
   286   343   344    1
   287   343   348    1
   288   344   345    1
   289   344   346    1
   290   344   347    1
   291   349   350    1
   292   349   354    1
   293   350   351    1
   294   350   352    1
   295   350   353    1
   296   355   356    1
   297   355   360    1
   298   356   357    1
   299   356   358    1
   300   356   359    1
   301   361   362    1
   302   361   366    1
   303   362   363    1
   304   362   364    1
   305   362   365    1
   306   367   368    1
   307   367   372    1
   308   368   369    1
   309   368   370    1
   310   368   371    1
   311   373   374    1
   312   373   378    1
   313   374   375    1
   314   374   376    1
   315   374   377    1
   316   379   380    1
   317   379   384    1
   318   380   381    1
   319   380   382    1
   320   380   383    1
   321   385   386    1
   322   385   390    1
   323   386   387    1
   324   386   388    1
   325   386   389    1
   326   391   392    1
   327   391   396    1
   328   392   393    1
   329   392   394    1
   330   392   395    1
   331   397   398    1
   332   397   402    1
   333   398   399    1
   334   398   400    1
   335   398   401    1
   336   403   404    1
   337   403   408    1
   338   404   405    1
   339   404   406    1
   340   404   407    1
   341   409   410    1
   342   409   414    1
   343   410   411    1
   344   410   412    1
   345   410   413    1
   346   415   416    1
   347   415   420    1
   348   416   417    1
   349   416   418    1
   350   416   419    1
   351   421   422    1
   352   421   426    1
   353   422   423    1
   354   422   424    1
   355   422   425    1
   356   427   428    1
   357   427   432    1
   358   428   429    1
   359   428   430    1
   360   428   431    1
   361   433   434    1
   362   433   438    1
   363   434   435    1
   364   434   436    1
   365   434   437    1
   366   439   440    1
   367   439   444    1
   368   440   441    1
   369   440   442    1
   370   440   443    1
   371   445   446    1
   372   445   450    1
   373   446   447    1
   374   446   448    1
   375   446   449    1
   376   451   452    1
   377   451   456    1
   378   452   453    1
   379   452   454    1
   380   452   455    1
