@<TRIPOS>MOLECULE
*****
 102 85 0 0 0
SMALL
GASTEIGER

@<TRIPOS>ATOM
      1 O          -0.5909   -1.1364   -1.0831 O.3     1  UNL1       -0.3982
      2 C          -2.0067   -1.1364   -1.0831 C.3     1  UNL1        0.0330
      3 H          -2.3720   -1.9796   -0.4917 H       1  UNL1        0.0521
      4 H          -2.3719   -1.2125   -2.1102 H       1  UNL1        0.0521
      5 H          -2.3620   -0.2028   -0.6407 H       1  UNL1        0.0521
      6 H          -0.3052   -1.9763   -1.4812 H       1  UNL1        0.2090
      7 O           1.4291   -1.3976    4.5894 O.3     2  UNL2       -0.3982
      8 C           0.9625   -1.3976    3.2527 C.3     2  UNL2        0.0330
      9 H           1.6541   -1.9644    2.6244 H       2  UNL2        0.0521
     10 H           0.8859   -0.3688    2.8927 H       2  UNL2        0.0521
     11 H          -0.0236   -1.8668    3.2207 H       2  UNL2        0.0521
     12 H           2.3051   -0.9754    4.5862 H       2  UNL2        0.2090
     13 O          -2.4071    2.1796   -1.7041 O.3     3  UNL3       -0.3982
     14 C          -1.6743    3.3150   -1.2818 C.3     3  UNL3        0.0330
     15 H          -1.0658    3.6860   -2.1103 H       3  UNL3        0.0521
     16 H          -1.0344    3.0438   -0.4386 H       3  UNL3        0.0521
     17 H          -2.3742    4.0936   -0.9694 H       3  UNL3        0.0521
     18 H          -1.7598    1.5064   -1.9749 H       3  UNL3        0.2090
     19 O          -0.6260    1.4207    4.0661 O.3     4  UNL4       -0.3982
     20 C          -2.0418    1.4207    4.0661 C.3     4  UNL4        0.0330
     21 H          -2.4071    1.4786    3.0377 H       4  UNL4        0.0521
     22 H          -2.4070    2.2742    4.6424 H       4  UNL4        0.0521
     23 H          -2.3971    0.4951    4.5251 H       4  UNL4        0.0521
     24 H          -0.3403    2.2534    3.6532 H       4  UNL4        0.2090
     25 O          -0.8510    7.9427   -1.2394 O.3     5  UNL5       -0.3982
     26 C           0.5564    7.8058   -1.3096 C.3     5  UNL5        0.0330
     27 H           0.9456    8.4396   -2.1103 H       5  UNL5        0.0521
     28 H           0.8126    6.7608   -1.5005 H       5  UNL5        0.0521
     29 H           0.9916    8.1172   -0.3571 H       5  UNL5        0.0521
     30 H          -1.2088    7.6592   -2.0980 H       5  UNL5        0.2090
     31 O          -0.6260    6.5597    4.0160 O.3     6  UNL6       -0.3982
     32 C          -2.0418    6.5597    4.0160 C.3     6  UNL6        0.0330
     33 H          -2.4071    5.7420    4.6423 H       6  UNL6        0.0521
     34 H          -2.4070    6.4405    2.9930 H       6  UNL6        0.0521
     35 H          -2.3971    7.5110    4.4188 H       6  UNL6        0.0521
     36 H          -0.3403    5.7038    3.6535 H       6  UNL6        0.2090
     37 O          -0.6260   11.6201   -1.2793 O.3     7  UNL7       -0.3982
     38 C          -2.0418   11.6201   -1.2793 C.3     7  UNL7        0.0330
     39 H          -2.4071   12.6429   -1.4006 H       7  UNL7        0.0521
     40 H          -2.4070   11.2006   -0.3387 H       7  UNL7        0.0521
     41 H          -2.3971   11.0076   -2.1112 H       7  UNL7        0.0521
     42 H          -0.3403   12.1712   -0.5308 H       7  UNL7        0.2090
     43 O           0.8694   11.5399    4.4992 O.3     8  UNL8       -0.3982
     44 C           1.0981   10.3946    3.6990 C.3     8  UNL8        0.0330
     45 H           0.3678    9.6215    3.9506 H       8  UNL8        0.0521
     46 H           2.1113   10.0241    3.8726 H       8  UNL8        0.0521
     47 H           0.9879   10.6683    2.6470 H       8  UNL8        0.0521
     48 H           0.9740   11.2662    5.4263 H       8  UNL8        0.2090
     49 O           0.6536   15.5390   -0.2742 O.3     9  UNL9       -0.3982
     50 C           0.6962   15.7416   -1.6748 C.3     9  UNL9        0.0330
     51 H           0.9918   16.7723   -1.8860 H       9  UNL9        0.0521
     52 H          -0.2882   15.5384   -2.1033 H       9  UNL9        0.0521
     53 H           1.4289   15.0582   -2.1105 H       9  UNL9        0.0521
     54 H          -0.0045   16.1586    0.0842 H       9  UNL9        0.2090
     55 O          -0.6260   14.1426    4.0058 O.3    10  UNL10      -0.3982
     56 C          -2.0418   14.1426    4.0058 C.3    10  UNL10       0.0330
     57 H          -2.4071   14.8170    4.7843 H      10  UNL10       0.0521
     58 H          -2.4070   13.1287    4.1864 H      10  UNL10       0.0521
     59 H          -2.3971   14.4874    3.0319 H      10  UNL10       0.0521
     60 H          -0.3403   13.8323    4.8819 H      10  UNL10       0.2090
     61 O          -0.6260   19.9200   -1.2793 O.3    11  UNL11      -0.3982
     62 C          -2.0418   19.9200   -1.2793 C.3    11  UNL11       0.0330
     63 H          -2.4071   20.9428   -1.4006 H      11  UNL11       0.0521
     64 H          -2.4070   19.5005   -0.3387 H      11  UNL11       0.0521
     65 H          -2.3971   19.3074   -2.1112 H      11  UNL11       0.0521
     66 H          -0.3403   20.4711   -0.5308 H      11  UNL11       0.2090
     67 O          -0.6260   18.7326    3.7101 O.3    12  UNL12      -0.3982
     68 C          -2.0418   18.7326    3.7101 C.3    12  UNL12       0.0330
     69 H          -2.4071   19.1986    4.6287 H      12  UNL12       0.0521
     70 H          -2.4070   17.7052    3.6399 H      12  UNL12       0.0521
     71 H          -2.3971   19.3029    2.8487 H      12  UNL12       0.0521
     72 H          -0.3403   18.2196    4.4851 H      12  UNL12       0.2090
     73 O          -0.6260   24.6917   -0.9255 O.3    13  UNL13      -0.3982
     74 C          -2.0418   24.6917   -0.9255 C.3    13  UNL13       0.0330
     75 H          -2.4071   24.1249   -1.7855 H      13  UNL13       0.0521
     76 H          -2.4070   25.7205   -0.9719 H      13  UNL13       0.0521
     77 H          -2.3971   24.2224   -0.0051 H      13  UNL13       0.0521
     78 H          -0.3403   25.1139   -1.7535 H      13  UNL13       0.2090
     79 O          -0.1857   22.1017    3.9887 O.3    14  UNL14      -0.3982
     80 C          -1.6015   22.1017    3.9887 C.3    14  UNL14       0.0330
     81 H          -1.9668   21.8561    2.9884 H      14  UNL14       0.0521
     82 H          -1.9667   23.0865    4.2900 H      14  UNL14       0.0521
     83 H          -1.9568   21.3510    4.6985 H      14  UNL14       0.0521
     84 H           0.1000   22.7771    3.3502 H      14  UNL14       0.2090
     85 O          -0.6260   28.6764   -1.4408 O.3    15  UNL15      -0.3982
     86 C          -2.0418   28.6764   -1.4408 C.3    15  UNL15       0.0330
     87 H          -2.4071   29.5055   -2.0518 H      15  UNL15       0.0521
     88 H          -2.4070   28.7766   -0.4158 H      15  UNL15       0.0521
     89 H          -2.3971   27.7326   -1.8612 H      15  UNL15       0.0521
     90 H          -0.3403   29.5254   -1.0625 H      15  UNL15       0.2090
     91 O          -0.8718   28.2427    4.1780 O.3    16  UNL16      -0.3982
     92 C           0.5338   28.4123    4.1862 C.3    16  UNL16       0.0330
     93 H           0.7882   29.3271    4.7272 H      16  UNL16       0.0521
     94 H           0.9007   28.4700    3.1585 H      16  UNL16       0.0521
     95 H           0.9921   27.5562    4.6868 H      16  UNL16       0.0521
     96 H          -1.2503   29.0170    3.7278 H      16  UNL16       0.2090
     97 O           3.5722   16.7780    3.6839 O.3    17  UNL17      -0.3982
     98 C           2.1690   16.5900    3.6884 C.3    17  UNL17       0.0330
     99 H           1.6765   17.5217    3.9777 H      17  UNL17       0.0521
    100 H           1.9093   15.7947    4.3912 H      17  UNL17       0.0521
    101 H           1.8453   16.3059    2.6843 H      17  UNL17       0.0521
    102 H           3.8297   17.0291    4.5873 H      17  UNL17       0.2090
@<TRIPOS>BOND
     1     1     2    1
     2     1     6    1
     3     2     3    1
     4     2     4    1
     5     2     5    1
     6     7     8    1
     7     7    12    1
     8     8     9    1
     9     8    10    1
    10     8    11    1
    11    13    14    1
    12    13    18    1
    13    14    15    1
    14    14    16    1
    15    14    17    1
    16    19    20    1
    17    19    24    1
    18    20    21    1
    19    20    22    1
    20    20    23    1
    21    25    26    1
    22    25    30    1
    23    26    27    1
    24    26    28    1
    25    26    29    1
    26    31    32    1
    27    31    36    1
    28    32    33    1
    29    32    34    1
    30    32    35    1
    31    37    38    1
    32    37    42    1
    33    38    39    1
    34    38    40    1
    35    38    41    1
    36    43    44    1
    37    43    48    1
    38    44    45    1
    39    44    46    1
    40    44    47    1
    41    49    50    1
    42    49    54    1
    43    50    51    1
    44    50    52    1
    45    50    53    1
    46    55    56    1
    47    55    60    1
    48    56    57    1
    49    56    58    1
    50    56    59    1
    51    61    62    1
    52    61    66    1
    53    62    63    1
    54    62    64    1
    55    62    65    1
    56    67    68    1
    57    67    72    1
    58    68    69    1
    59    68    70    1
    60    68    71    1
    61    73    74    1
    62    73    78    1
    63    74    75    1
    64    74    76    1
    65    74    77    1
    66    79    80    1
    67    79    84    1
    68    80    81    1
    69    80    82    1
    70    80    83    1
    71    85    86    1
    72    85    90    1
    73    86    87    1
    74    86    88    1
    75    86    89    1
    76    91    92    1
    77    91    96    1
    78    92    93    1
    79    92    94    1
    80    92    95    1
    81    97    98    1
    82    97   102    1
    83    98    99    1
    84    98   100    1
    85    98   101    1
