@<TRIPOS>MOLECULE
*****
 132 110 0 0 0
SMALL
GASTEIGER

@<TRIPOS>ATOM
      1 O          -0.2257    8.6042    0.8520 O.3     1  UNL1       -0.3982
      2 C          -1.6415    8.6042    0.8520 C.3     1  UNL1        0.0330
      3 H          -2.0068    9.6134    1.0580 H       1  UNL1        0.0521
      4 H          -2.0067    7.9105    1.6132 H       1  UNL1        0.0521
      5 H          -1.9968    8.2839   -0.1302 H       1  UNL1        0.0521
      6 H           0.0600    8.8923    1.7356 H       1  UNL1        0.2090
      7 O          -0.2257    9.0457    6.5593 O.3     2  UNL2       -0.3982
      8 C          -1.6415    9.0457    6.5593 C.3     2  UNL2        0.0330
      9 H          -2.0068    8.2767    7.2445 H       2  UNL2        0.0521
     10 H          -2.0067    8.8510    5.5480 H       2  UNL2        0.0521
     11 H          -1.9968   10.0243    6.8905 H       2  UNL2        0.0521
     12 H           0.0600    8.1653    6.2613 H       2  UNL2        0.2090
     13 O           0.5243    9.1704    2.9573 O.3     3  UNL3       -0.3982
     14 C          -0.8915    9.1704    2.9573 C.3     3  UNL3        0.0330
     15 H          -1.2568    9.6400    3.8740 H       3  UNL3        0.0521
     16 H          -1.2567    8.1426    2.8912 H       3  UNL3        0.0521
     17 H          -1.2468    9.7372    2.0936 H       3  UNL3        0.0521
     18 H           0.8100    8.6604    3.7344 H       3  UNL3        0.2090
     19 O           2.3058   -0.8816    2.8323 O.3     4  UNL4       -0.3982
     20 C           0.8900   -0.8816    2.8323 C.3     4  UNL4        0.0330
     21 H           0.5247   -0.4120    3.7490 H       4  UNL4        0.0521
     22 H           0.5248   -1.9094    2.7662 H       4  UNL4        0.0521
     23 H           0.5347   -0.3148    1.9686 H       4  UNL4        0.0521
     24 H           2.5915   -1.3916    3.6094 H       4  UNL4        0.2090
     25 O           1.8058   -1.0709    5.4714 O.3     5  UNL5       -0.3982
     26 C           0.3900   -1.0709    5.4714 C.3     5  UNL5        0.0330
     27 H           0.0247   -1.8399    6.1566 H       5  UNL5        0.0521
     28 H           0.0248   -1.2656    4.4601 H       5  UNL5        0.0521
     29 H           0.0347   -0.0923    5.8026 H       5  UNL5        0.0521
     30 H           2.0915   -1.9513    5.1734 H       5  UNL5        0.2090
     31 O           2.4308    1.8222    0.6484 O.3     6  UNL6       -0.3982
     32 C           1.0150    1.8222    0.6484 C.3     6  UNL6        0.0330
     33 H           0.6497    2.5277   -0.1021 H       6  UNL6        0.0521
     34 H           0.6498    2.1055    1.6385 H       6  UNL6        0.0521
     35 H           0.6597    0.8182    0.4049 H       6  UNL6        0.0521
     36 H           2.7165    2.7255    0.8674 H       6  UNL6        0.2090
     37 O          -0.1884    1.2395    2.5172 O.3     7  UNL7       -0.3982
     38 C           1.0480    1.2395    3.2070 C.3     7  UNL7        0.0330
     39 H           1.7008    0.4705    2.7865 H       7  UNL7        0.0521
     40 H           0.8743    1.0448    4.2681 H       7  UNL7        0.0521
     41 H           1.5196    2.2181    3.0908 H       7  UNL7        0.0521
     42 H          -0.5831    0.3591    2.6383 H       7  UNL7        0.2090
     43 O           1.5558    1.4895    5.5964 O.3     8  UNL8       -0.3982
     44 C           0.1400    1.4895    5.5964 C.3     8  UNL8        0.0330
     45 H          -0.2253    0.7205    6.2816 H       8  UNL8        0.0521
     46 H          -0.2252    1.2948    4.5851 H       8  UNL8        0.0521
     47 H          -0.2153    2.4681    5.9276 H       8  UNL8        0.0521
     48 H           1.8415    0.6091    5.2984 H       8  UNL8        0.2090
     49 O           0.4540    2.8512    0.4770 O.3     9  UNL9       -0.3982
     50 C           0.0976    4.2214    0.4770 C.3     9  UNL9        0.0330
     51 H           0.9824    4.8289    0.6830 H       9  UNL9        0.0521
     52 H          -0.6657    4.4003    1.2382 H       9  UNL9        0.0521
     53 H          -0.3018    4.4847   -0.5052 H       9  UNL9        0.0521
     54 H           0.8047    2.6472    1.3606 H       9  UNL9        0.2090
     55 O           2.3058    3.9249    2.8835 O.3    10  UNL10      -0.3982
     56 C           0.8900    3.9249    2.8835 C.3    10  UNL10       0.0330
     57 H           0.5247    3.1559    3.5687 H      10  UNL10       0.0521
     58 H           0.5248    3.7302    1.8722 H      10  UNL10       0.0521
     59 H           0.5347    4.9035    3.2147 H      10  UNL10       0.0521
     60 H           2.5915    3.0445    2.5855 H      10  UNL10       0.2090
     61 O           1.6808    6.6077    1.1038 O.3    11  UNL11      -0.3982
     62 C           0.2650    6.6077    1.1038 C.3    11  UNL11       0.0330
     63 H          -0.1003    6.3397    0.1093 H      11  UNL11       0.0521
     64 H          -0.1002    7.5991    1.3829 H      11  UNL11       0.0521
     65 H          -0.0903    5.8732    1.8303 H      11  UNL11       0.0521
     66 H           1.9665    7.2686    0.4503 H      11  UNL11       0.2090
     67 O           1.0558    6.6103    3.2585 O.3    12  UNL12      -0.3982
     68 C          -0.3600    6.6103    3.2585 C.3    12  UNL12       0.0330
     69 H          -0.7253    5.8413    3.9437 H      12  UNL12       0.0521
     70 H          -0.7252    6.4156    2.2472 H      12  UNL12       0.0521
     71 H          -0.7153    7.5889    3.5897 H      12  UNL12       0.0521
     72 H           1.3415    5.7299    2.9605 H      12  UNL12       0.2090
     73 O           1.8058    5.3278    6.0260 O.3    13  UNL13      -0.3982
     74 C           0.3900    5.3278    6.0260 C.3    13  UNL13       0.0330
     75 H           0.0247    4.3461    6.3377 H      13  UNL13       0.0521
     76 H           0.0248    5.5627    5.0233 H      13  UNL13       0.0521
     77 H           0.0347    6.0860    6.7277 H      13  UNL13       0.0521
     78 H           2.0915    4.6456    5.3946 H      13  UNL13       0.2090
     79 O           2.3058    8.4207   -0.7044 O.3    14  UNL14      -0.3982
     80 C           0.8900    8.4207   -0.7044 C.3    14  UNL14       0.0330
     81 H           0.5247    7.6517   -0.0192 H      14  UNL14       0.0521
     82 H           0.5248    8.2260   -1.7157 H      14  UNL14       0.0521
     83 H           0.5347    9.3993   -0.3732 H      14  UNL14       0.0521
     84 H           2.5915    7.5403   -1.0024 H      14  UNL14       0.2090
     85 O           1.4899    9.8031    0.8612 O.3    15  UNL15      -0.3982
     86 C           1.7032    8.6688    1.6812 C.3    15  UNL15       0.0330
     87 H           1.2501    8.8364    2.6615 H      15  UNL15       0.0521
     88 H           2.7762    8.4928    1.7891 H      15  UNL15       0.0521
     89 H           1.2389    7.7985    1.2116 H      15  UNL15       0.0521
     90 H           1.9128   10.5589    1.3033 H      15  UNL15       0.2090
     91 O           2.1808    7.5492    5.3096 O.3    16  UNL16      -0.3982
     92 C           0.7650    7.5492    5.3096 C.3    16  UNL16       0.0330
     93 H           0.3997    8.5546    5.0859 H      16  UNL16       0.0521
     94 H           0.3998    7.2266    6.2877 H      16  UNL16       0.0521
     95 H           0.4097    6.8560    4.5437 H      16  UNL16       0.0521
     96 H           2.4665    8.1729    5.9988 H      16  UNL16       0.2090
     97 O           0.0558   11.7311    0.7956 O.3    17  UNL17      -0.3982
     98 C          -1.3600   11.7311    0.7956 C.3    17  UNL17       0.0330
     99 H          -1.7253   10.9621    1.4808 H      17  UNL17       0.0521
    100 H          -1.7252   11.5364   -0.2157 H      17  UNL17       0.0521
    101 H          -1.7153   12.7097    1.1268 H      17  UNL17       0.0521
    102 H           0.3415   10.8507    0.4976 H      17  UNL17       0.2090
    103 O           1.9308   11.1646    3.0649 O.3    18  UNL18      -0.3982
    104 C           0.5150   11.1646    3.0649 C.3    18  UNL18       0.0330
    105 H           0.1497   12.1738    3.2709 H      18  UNL18       0.0521
    106 H           0.1498   10.4709    3.8261 H      18  UNL18       0.0521
    107 H           0.1597   10.8443    2.0827 H      18  UNL18       0.0521
    108 H           2.2165   11.4527    3.9485 H      18  UNL18       0.2090
    109 O           0.3507   10.9749    6.6539 O.3    19  UNL19      -0.3982
    110 C           1.1942   11.0871    5.5223 C.3    19  UNL19       0.0330
    111 H           2.0798   11.6719    5.7833 H      19  UNL19       0.0521
    112 H           0.6506   11.5727    4.7083 H      19  UNL19       0.0521
    113 H           1.5007   10.0869    5.2071 H      19  UNL19       0.0521
    114 H           0.0952   11.8774    6.9103 H      19  UNL19       0.2090
    115 O           2.3272   14.6495    1.1769 O.3    20  UNL20      -0.3982
    116 C           1.0330   14.3365    0.6959 C.3    20  UNL20       0.0330
    117 H           0.3788   14.0957    1.5376 H      20  UNL20       0.0521
    118 H           1.0931   13.4861    0.0124 H      20  UNL20       0.0521
    119 H           0.6331   15.2022    0.1626 H      20  UNL20       0.0521
    120 H           2.6559   13.8633    1.6451 H      20  UNL20       0.2090
    121 O           1.5558   14.1665    3.7585 O.3    21  UNL21      -0.3982
    122 C           0.1400   14.1665    3.7585 C.3    21  UNL21       0.0330
    123 H          -0.2253   13.3975    4.4437 H      21  UNL21       0.0521
    124 H          -0.2252   13.9718    2.7472 H      21  UNL21       0.0521
    125 H          -0.2153   15.1451    4.0897 H      21  UNL21       0.0521
    126 H           1.8415   13.2861    3.4605 H      21  UNL21       0.2090
    127 O           1.3601   14.7261    5.7214 O.3    22  UNL22      -0.3982
    128 C           1.0037   13.3558    5.7214 C.3    22  UNL22       0.0330
    129 H           1.6560   12.8087    6.4066 H      22  UNL22       0.0521
    130 H           1.1002   12.9534    4.7101 H      22  UNL22       0.0521
    131 H          -0.0328   13.2583    6.0526 H      22  UNL22       0.0521
    132 H           2.2840   14.7810    5.4234 H      22  UNL22       0.2090
@<TRIPOS>BOND
     1     1     2    1
     2     1     6    1
     3     2     3    1
     4     2     4    1
     5     2     5    1
     6     7     8    1
     7     7    12    1
     8     8     9    1
     9     8    10    1
    10     8    11    1
    11    13    14    1
    12    13    18    1
    13    14    15    1
    14    14    16    1
    15    14    17    1
    16    19    20    1
    17    19    24    1
    18    20    21    1
    19    20    22    1
    20    20    23    1
    21    25    26    1
    22    25    30    1
    23    26    27    1
    24    26    28    1
    25    26    29    1
    26    31    32    1
    27    31    36    1
    28    32    33    1
    29    32    34    1
    30    32    35    1
    31    37    38    1
    32    37    42    1
    33    38    39    1
    34    38    40    1
    35    38    41    1
    36    43    44    1
    37    43    48    1
    38    44    45    1
    39    44    46    1
    40    44    47    1
    41    49    50    1
    42    49    54    1
    43    50    51    1
    44    50    52    1
    45    50    53    1
    46    55    56    1
    47    55    60    1
    48    56    57    1
    49    56    58    1
    50    56    59    1
    51    61    62    1
    52    61    66    1
    53    62    63    1
    54    62    64    1
    55    62    65    1
    56    67    68    1
    57    67    72    1
    58    68    69    1
    59    68    70    1
    60    68    71    1
    61    73    74    1
    62    73    78    1
    63    74    75    1
    64    74    76    1
    65    74    77    1
    66    79    80    1
    67    79    84    1
    68    80    81    1
    69    80    82    1
    70    80    83    1
    71    85    86    1
    72    85    90    1
    73    86    87    1
    74    86    88    1
    75    86    89    1
    76    91    92    1
    77    91    96    1
    78    92    93    1
    79    92    94    1
    80    92    95    1
    81    97    98    1
    82    97   102    1
    83    98    99    1
    84    98   100    1
    85    98   101    1
    86   103   104    1
    87   103   108    1
    88   104   105    1
    89   104   106    1
    90   104   107    1
    91   109   110    1
    92   109   114    1
    93   110   111    1
    94   110   112    1
    95   110   113    1
    96   115   116    1
    97   115   120    1
    98   116   117    1
    99   116   118    1
   100   116   119    1
   101   121   122    1
   102   121   126    1
   103   122   123    1
   104   122   124    1
   105   122   125    1
   106   127   128    1
   107   127   132    1
   108   128   129    1
   109   128   130    1
   110   128   131    1
