@<TRIPOS>MOLECULE
*****
 162 135 0 0 0
SMALL
GASTEIGER

@<TRIPOS>ATOM
      1 O           0.3256   -0.7819   -0.1170 O.3     1  UNL1       -0.3982
      2 C          -1.0446   -0.4865   -0.3164 C.3     1  UNL1        0.0330
      3 H          -1.4917   -0.1711    0.6296 H       1  UNL1        0.0521
      4 H          -1.5578   -1.3732   -0.6965 H       1  UNL1        0.0521
      5 H          -1.1313    0.3225   -1.0455 H       1  UNL1        0.0521
      6 H           0.3707   -1.5027    0.5341 H       1  UNL1        0.2090
      7 O          -0.6969    3.7763    0.8018 O.3     2  UNL2       -0.3982
      8 C          -0.5692    2.3917    1.0686 C.3     2  UNL2        0.0330
      9 H          -0.2749    2.2462    2.1110 H       2  UNL2        0.0521
     10 H           0.1819    1.9593    0.4031 H       2  UNL2        0.0521
     11 H          -1.5317    1.9057    0.8928 H       2  UNL2        0.0521
     12 H           0.1721    4.1803    0.9664 H       2  UNL2        0.2090
     13 O           0.6131    9.1007   -0.2637 O.3     3  UNL3       -0.3982
     14 C          -0.6660    9.4410   -0.7661 C.3     3  UNL3        0.0330
     15 H          -1.4318    8.8764   -0.2284 H       3  UNL3        0.0521
     16 H          -0.7118    9.2123   -1.8336 H       3  UNL3        0.0521
     17 H          -0.8331   10.5104   -0.6174 H       3  UNL3        0.0521
     18 H           0.7328    8.1468   -0.4096 H       3  UNL3        0.2090
     19 O           3.2215   -0.7702    0.7118 O.3     4  UNL4       -0.3982
     20 C           2.6075    0.4810    0.9609 C.3     4  UNL4        0.0330
     21 H           1.7602    0.3439    1.6373 H       4  UNL4        0.0521
     22 H           2.2679    0.9155    0.0176 H       4  UNL4        0.0521
     23 H           3.3372    1.1487    1.4251 H       4  UNL4        0.0521
     24 H           2.5503   -1.3408    0.3001 H       4  UNL4        0.2090
     25 O           2.9110    3.9244   -0.0419 O.3     5  UNL5       -0.3982
     26 C           1.9995    4.7629   -0.7277 C.3     5  UNL5        0.0330
     27 H           1.0991    4.1964   -0.9778 H       5  UNL5        0.0521
     28 H           2.4679    5.1439   -1.6385 H       5  UNL5        0.0521
     29 H           1.7317    5.6012   -0.0803 H       5  UNL5        0.0521
     30 H           3.1301    3.1903   -0.6408 H       5  UNL5        0.2090
     31 O           4.9626    7.7260    0.3180 O.3     6  UNL6       -0.3982
     32 C           3.8434    6.9006    0.0526 C.3     6  UNL6        0.0330
     33 H           3.8627    6.5842   -0.9933 H       6  UNL6        0.0521
     34 H           2.9242    7.4539    0.2600 H       6  UNL6        0.0521
     35 H           3.8899    6.0205    0.6982 H       6  UNL6        0.0521
     36 H           4.8939    8.4980   -0.2692 H       6  UNL6        0.2090
     37 O           6.4007   10.3698   -0.9349 O.3     7  UNL7       -0.3982
     38 C           5.2275   11.1390   -0.7441 C.3     7  UNL7        0.0330
     39 H           4.4850   10.5452   -0.2052 H       7  UNL7        0.0521
     40 H           4.8299   11.4454   -1.7147 H       7  UNL7        0.0521
     41 H           5.4761   12.0267   -0.1579 H       7  UNL7        0.0521
     42 H           6.1489    9.5895   -1.4577 H       7  UNL7        0.2090
     43 O           6.0298   -1.0423    0.6701 O.3     8  UNL8       -0.3982
     44 C           5.8278    0.0982    1.4843 C.3     8  UNL8        0.0330
     45 H           5.1926    0.8150    0.9579 H       8  UNL8        0.0521
     46 H           6.7924    0.5542    1.7199 H       8  UNL8        0.0521
     47 H           5.3365   -0.2090    2.4105 H       8  UNL8        0.0521
     48 H           6.4670   -0.7386   -0.1436 H       8  UNL8        0.2090
     49 O           7.0936    2.2876   -0.1231 O.3     9  UNL9       -0.3982
     50 C           5.8826    2.9977   -0.3068 C.3     9  UNL9        0.0330
     51 H           5.0782    2.4944    0.2352 H       9  UNL9        0.0521
     52 H           5.6448    3.0446   -1.3723 H       9  UNL9        0.0521
     53 H           6.0026    4.0114    0.0824 H       9  UNL9        0.0521
     54 H           6.9566    1.3926   -0.4778 H       9  UNL9        0.2090
     55 O           9.3218    8.0261   -0.8352 O.3    10  UNL10      -0.3982
     56 C           8.5805    7.0746   -0.0939 C.3    10  UNL10       0.0330
     57 H           8.6184    6.1070   -0.6004 H      10  UNL10       0.0521
     58 H           7.5445    7.4097   -0.0024 H      10  UNL10       0.0521
     59 H           9.0197    6.9796    0.9019 H      10  UNL10       0.0521
     60 H           8.9089    8.0888   -1.7133 H      10  UNL10       0.2090
     61 O          10.2525   -0.7361    0.2255 O.3    11  UNL11      -0.3982
     62 C           8.9478   -0.3450   -0.1608 C.3    11  UNL11       0.0330
     63 H           8.4176   -1.2043   -0.5789 H      11  UNL11       0.0521
     64 H           9.0110    0.4542   -0.9034 H      11  UNL11       0.0521
     65 H           8.4111    0.0192    0.7183 H      11  UNL11       0.0521
     66 H          10.7041   -1.0543   -0.5747 H      11  UNL11       0.2090
     67 O           9.8273    4.0105    0.7552 O.3    12  UNL12      -0.3982
     68 C           9.9292    2.6205    0.5062 C.3    12  UNL12       0.0330
     69 H          10.9475    2.2851    0.7183 H      12  UNL12       0.0521
     70 H           9.6770    2.4170   -0.5373 H      12  UNL12       0.0521
     71 H           9.2303    2.0907    1.1577 H      12  UNL12       0.0521
     72 H          10.4585    4.4539    0.1631 H      12  UNL12       0.2090
     73 O          11.7017    6.2096   -0.9827 O.3    13  UNL13      -0.3982
     74 C          12.0611    6.6836    0.3021 C.3    13  UNL13       0.0330
     75 H          12.9936    7.2494    0.2350 H      13  UNL13       0.0521
     76 H          12.1841    5.8373    0.9823 H      13  UNL13       0.0521
     77 H          11.2678    7.3356    0.6750 H      13  UNL13       0.0521
     78 H          12.4240    5.6343   -1.2874 H      13  UNL13       0.2090
     79 O          12.9921   12.6884    0.1444 O.3    14  UNL14      -0.3982
     80 C          11.7830   12.5705   -0.5827 C.3    14  UNL14       0.0330
     81 H          11.1094   11.8848   -0.0628 H      14  UNL14       0.0521
     82 H          11.9960   12.1972   -1.5874 H      14  UNL14       0.0521
     83 H          11.3139   13.5546   -0.6539 H      14  UNL14       0.0521
     84 H          13.3852   11.8002    0.1911 H      14  UNL14       0.2090
     85 O          14.4099    3.6341   -0.4573 O.3    15  UNL15      -0.3982
     86 C          13.1066    3.0968   -0.3260 C.3    15  UNL15       0.0330
     87 H          12.4242    3.8751    0.0243 H      15  UNL15       0.0521
     88 H          13.1239    2.2660    0.3836 H      15  UNL15       0.0521
     89 H          12.7721    2.7337   -1.3006 H      15  UNL15       0.0521
     90 H          14.6796    3.9478    0.4226 H      15  UNL15       0.2090
     91 O          17.2308    8.5910   -1.6230 O.3    16  UNL16      -0.3982
     92 C          16.1401    9.2905   -1.0523 C.3    16  UNL16       0.0330
     93 H          15.6206    8.6412   -0.3431 H      16  UNL16       0.0521
     94 H          15.4550    9.6064   -1.8428 H      16  UNL16       0.0521
     95 H          16.5182   10.1709   -0.5274 H      16  UNL16       0.0521
     96 H          16.8645    7.8157   -2.0816 H      16  UNL16       0.2090
     97 O          18.0809    1.6739    0.0860 O.3    17  UNL17      -0.3982
     98 C          16.8325    2.3194   -0.0851 C.3    17  UNL17       0.0330
     99 H          16.0349    1.6808    0.3026 H      17  UNL17       0.0521
    100 H          16.6684    2.5220   -1.1462 H      17  UNL17       0.0521
    101 H          16.8416    3.2625    0.4664 H      17  UNL17       0.0521
    102 H          18.0427    0.8410   -0.4143 H      17  UNL17       0.2090
    103 O          21.5877    0.5474   -0.9184 O.3    18  UNL18      -0.3982
    104 C          20.7790   -0.4077   -0.2564 C.3    18  UNL18       0.0330
    105 H          21.4116   -1.0768    0.3323 H      18  UNL18       0.0521
    106 H          20.2121   -0.9805   -0.9943 H      18  UNL18       0.0521
    107 H          20.0858    0.1132    0.4081 H      18  UNL18       0.0521
    108 H          22.1920    0.0558   -1.5005 H      18  UNL18       0.2090
    109 O          23.5144    6.0524   -0.4486 O.3    19  UNL19      -0.3982
    110 C          22.1366    5.9445   -0.7560 C.3    19  UNL19       0.0330
    111 H          21.6115    6.8333   -0.3971 H      19  UNL19       0.0521
    112 H          21.7258    5.0495   -0.2824 H      19  UNL19       0.0521
    113 H          22.0192    5.8673   -1.8394 H      19  UNL19       0.0521
    114 H          23.5869    6.1193    0.5188 H      19  UNL19       0.2090
    115 O          22.7401   10.7694   -0.1230 O.3    20  UNL20      -0.3982
    116 C          22.4213   11.8117   -1.0267 C.3    20  UNL20       0.0330
    117 H          22.1540   12.7115   -0.4669 H      20  UNL20       0.0521
    118 H          21.5867   11.5027   -1.6607 H      20  UNL20       0.0521
    119 H          23.2932   12.0193   -1.6513 H      20  UNL20       0.0521
    120 H          21.9480   10.6076    0.4173 H      20  UNL20       0.2090
    121 O          25.1987    0.1150    0.6434 O.3    21  UNL21      -0.3982
    122 C          23.8746   -0.3562    0.8139 C.3    21  UNL21       0.0330
    123 H          23.8282   -1.0057    1.6916 H      21  UNL21       0.0521
    124 H          23.5655   -0.9076   -0.0774 H      21  UNL21       0.0521
    125 H          23.2095    0.4981    0.9600 H      21  UNL21       0.0521
    126 H          25.7653   -0.6650    0.5160 H      21  UNL21       0.2090
    127 O          25.0265    2.9330    0.2820 O.3    22  UNL22      -0.3982
    128 C          23.9114    2.6438   -0.5411 C.3    22  UNL22       0.0330
    129 H          24.1017    1.7273   -1.1052 H      22  UNL22       0.0521
    130 H          23.7376    3.4768   -1.2265 H      22  UNL22       0.0521
    131 H          23.0306    2.5042    0.0901 H      22  UNL22       0.0521
    132 H          25.7922    3.0516   -0.3055 H      22  UNL22       0.2090
    133 O          26.7769   11.5186   -0.1972 O.3    23  UNL23      -0.3982
    134 C          26.0346   12.1484   -1.2252 C.3    23  UNL23       0.0330
    135 H          25.1799   12.6723   -0.7902 H      23  UNL23       0.0521
    136 H          25.6899   11.3970   -1.9397 H      23  UNL23       0.0521
    137 H          26.6775   12.8677   -1.7381 H      23  UNL23       0.0521
    138 H          26.1807   10.8866    0.2395 H      23  UNL23       0.2090
    139 O          29.7132    0.1309    0.4357 O.3    24  UNL24      -0.3982
    140 C          28.3907   -0.3093    0.6838 C.3    24  UNL24       0.0330
    141 H          28.1608   -0.1949    1.7460 H      24  UNL24       0.0521
    142 H          28.2934   -1.3572    0.3898 H      24  UNL24       0.0521
    143 H          27.6981    0.2975    0.0959 H      24  UNL24       0.0521
    144 H          30.3046   -0.4256    0.9706 H      24  UNL24       0.2090
    145 O          29.8422    2.7575   -0.2607 O.3    25  UNL25      -0.3982
    146 C          28.5125    3.2114   -0.4353 C.3    25  UNL25       0.0330
    147 H          27.8553    2.3568   -0.6143 H      25  UNL25       0.0521
    148 H          28.4702    3.9008   -1.2821 H      25  UNL25       0.0521
    149 H          28.1925    3.7309    0.4709 H      25  UNL25       0.0521
    150 H          30.0982    2.3010   -1.0802 H      25  UNL25       0.2090
    151 O          31.4021    8.6131   -1.4896 O.3    26  UNL26      -0.3982
    152 C          31.4372    8.9329   -0.1109 C.3    26  UNL26       0.0330
    153 H          30.7820    8.2526    0.4388 H      26  UNL26       0.0521
    154 H          31.1108    9.9658    0.0328 H      26  UNL26       0.0521
    155 H          32.4613    8.8227    0.2535 H      26  UNL26       0.0521
    156 H          30.4816    8.7199   -1.7843 H      26  UNL26       0.2090
    157 O          33.1273   -0.9439    0.6290 O.3    27  UNL27      -0.3982
    158 C          32.7005   -0.9196   -0.7208 C.3    27  UNL27       0.0330
    159 H          31.6127   -0.8229   -0.7583 H      27  UNL27       0.0521
    160 H          33.0125   -1.8408   -1.2190 H      27  UNL27       0.0521
    161 H          33.1578   -0.0637   -1.2226 H      27  UNL27       0.0521
    162 H          32.7056   -1.7134    1.0481 H      27  UNL27       0.2090
@<TRIPOS>BOND
     1     1     2    1
     2     1     6    1
     3     2     3    1
     4     2     4    1
     5     2     5    1
     6     7     8    1
     7     7    12    1
     8     8     9    1
     9     8    10    1
    10     8    11    1
    11    13    14    1
    12    13    18    1
    13    14    15    1
    14    14    16    1
    15    14    17    1
    16    19    20    1
    17    19    24    1
    18    20    21    1
    19    20    22    1
    20    20    23    1
    21    25    26    1
    22    25    30    1
    23    26    27    1
    24    26    28    1
    25    26    29    1
    26    31    32    1
    27    31    36    1
    28    32    33    1
    29    32    34    1
    30    32    35    1
    31    37    38    1
    32    37    42    1
    33    38    39    1
    34    38    40    1
    35    38    41    1
    36    43    44    1
    37    43    48    1
    38    44    45    1
    39    44    46    1
    40    44    47    1
    41    49    50    1
    42    49    54    1
    43    50    51    1
    44    50    52    1
    45    50    53    1
    46    55    56    1
    47    55    60    1
    48    56    57    1
    49    56    58    1
    50    56    59    1
    51    61    62    1
    52    61    66    1
    53    62    63    1
    54    62    64    1
    55    62    65    1
    56    67    68    1
    57    67    72    1
    58    68    69    1
    59    68    70    1
    60    68    71    1
    61    73    74    1
    62    73    78    1
    63    74    75    1
    64    74    76    1
    65    74    77    1
    66    79    80    1
    67    79    84    1
    68    80    81    1
    69    80    82    1
    70    80    83    1
    71    85    86    1
    72    85    90    1
    73    86    87    1
    74    86    88    1
    75    86    89    1
    76    91    92    1
    77    91    96    1
    78    92    93    1
    79    92    94    1
    80    92    95    1
    81    97    98    1
    82    97   102    1
    83    98    99    1
    84    98   100    1
    85    98   101    1
    86   103   104    1
    87   103   108    1
    88   104   105    1
    89   104   106    1
    90   104   107    1
    91   109   110    1
    92   109   114    1
    93   110   111    1
    94   110   112    1
    95   110   113    1
    96   115   116    1
    97   115   120    1
    98   116   117    1
    99   116   118    1
   100   116   119    1
   101   121   122    1
   102   121   126    1
   103   122   123    1
   104   122   124    1
   105   122   125    1
   106   127   128    1
   107   127   132    1
   108   128   129    1
   109   128   130    1
   110   128   131    1
   111   133   134    1
   112   133   138    1
   113   134   135    1
   114   134   136    1
   115   134   137    1
   116   139   140    1
   117   139   144    1
   118   140   141    1
   119   140   142    1
   120   140   143    1
   121   145   146    1
   122   145   150    1
   123   146   147    1
   124   146   148    1
   125   146   149    1
   126   151   152    1
   127   151   156    1
   128   152   153    1
   129   152   154    1
   130   152   155    1
   131   157   158    1
   132   157   162    1
   133   158   159    1
   134   158   160    1
   135   158   161    1
