@<TRIPOS>MOLECULE
*****
 5970 4975 0 0 0
SMALL
GASTEIGER

@<TRIPOS>ATOM
      1 O           0.5362    0.9859    4.7515 O.3     1  UNL1       -0.3982
      2 C          -0.8796    0.9859    4.7515 C.3     1  UNL1        0.0330
      3 H          -1.2449    1.8877    4.2539 H       1  UNL1        0.0521
      4 H          -1.2448    0.9514    5.7808 H       1  UNL1        0.0521
      5 H          -1.2349    0.1051    4.2115 H       1  UNL1        0.0521
      6 H           0.8219    1.7783    5.2373 H       1  UNL1        0.2090
      7 O           0.3953    0.5954   15.5511 O.3     2  UNL2       -0.3982
      8 C          -0.8336    1.2967   15.6016 C.3     2  UNL2        0.0330
      9 H          -0.7104    2.2074   16.1930 H       2  UNL2        0.0521
     10 H          -1.5996    0.6593   16.0498 H       2  UNL2        0.0521
     11 H          -1.1329    1.5626   14.5852 H       2  UNL2        0.0521
     12 H           0.6352    0.3729   16.4668 H       2  UNL2        0.2090
     13 O          -1.5159    0.9648   18.9275 O.3     3  UNL3       -0.3982
     14 C          -0.2462    0.9648   18.3010 C.3     3  UNL3        0.0330
     15 H           0.5038    1.3511   18.9955 H       3  UNL3        0.0521
     16 H          -0.2819    1.5869   17.4034 H       3  UNL3        0.0521
     17 H           0.0122   -0.0594   18.0218 H       3  UNL3        0.0521
     18 H          -1.7179    1.8861   19.1637 H       3  UNL3        0.2090
     19 O           0.2563    4.4372    2.2361 O.3     4  UNL4       -0.3982
     20 C          -1.0596    4.2614    1.7441 C.3     4  UNL4        0.0330
     21 H          -1.7156    3.9471    2.5597 H       4  UNL4        0.0521
     22 H          -1.0562    3.5069    0.9537 H       4  UNL4        0.0521
     23 H          -1.4166    5.2104    1.3374 H       4  UNL4        0.0521
     24 H           0.5459    3.5791    2.5902 H       4  UNL4        0.2090
     25 O          -1.0804    2.9697    7.2279 O.3     5  UNL5       -0.3982
     26 C          -0.1326    4.0212    7.2017 C.3     5  UNL5        0.0330
     27 H           0.8295    3.6549    7.5685 H       5  UNL5        0.0521
     28 H          -0.4837    4.8450    7.8278 H       5  UNL5        0.0521
     29 H          -0.0186    4.3711    6.1730 H       5  UNL5        0.0521
     30 H          -1.1603    2.6801    8.1527 H       5  UNL5        0.2090
     31 O          -1.2274    3.3287   10.3415 O.3     6  UNL6       -0.3982
     32 C          -0.1284    4.1827   10.0819 C.3     6  UNL6        0.0330
     33 H           0.8041    3.6283   10.2135 H       6  UNL6        0.0521
     34 H          -0.1581    5.0343   10.7661 H       6  UNL6        0.0521
     35 H          -0.1936    4.5428    9.0525 H       6  UNL6        0.0521
     36 H          -1.1425    3.0253   11.2614 H       6  UNL6        0.2090
     37 O          -1.5452    3.8902   13.4268 O.3     7  UNL7       -0.3982
     38 C          -0.2756    3.8003   12.8068 C.3     7  UNL7        0.0330
     39 H           0.5061    3.8213   13.5702 H       7  UNL7        0.0521
     40 H          -0.1469    4.6364   12.1152 H       7  UNL7        0.0521
     41 H          -0.2162    2.8601   12.2534 H       7  UNL7        0.0521
     42 H          -1.5682    4.7338   13.9098 H       7  UNL7        0.2090
     43 O          -0.2638    3.8493   15.6336 O.3     8  UNL8       -0.3982
     44 C          -1.6796    3.8493   15.6336 C.3     8  UNL8        0.0330
     45 H          -2.0449    4.8421   15.3595 H       8  UNL8        0.0521
     46 H          -2.0448    3.5763   16.6267 H       8  UNL8        0.0521
     47 H          -2.0349    3.1183   14.9036 H       8  UNL8        0.0521
     48 H           0.0219    4.5069   16.2905 H       8  UNL8        0.2090
     49 O          -1.2452    4.7532   18.7007 O.3     9  UNL9       -0.3982
     50 C          -0.2033    3.8117   18.5205 C.3     9  UNL9        0.0330
     51 H           0.0807    3.7786   17.4658 H       9  UNL9        0.0521
     52 H          -0.5412    2.8258   18.8490 H       9  UNL9        0.0521
     53 H           0.6587    4.1168   19.1183 H       9  UNL9        0.0521
     54 H          -1.9957    4.4560   18.1586 H       9  UNL9        0.2090
     55 O          -0.0622    4.0481   22.3690 O.3    10  UNL10      -0.3982
     56 C          -0.5326    4.0360   21.0337 C.3    10  UNL10       0.0330
     57 H          -1.5140    4.5145   20.9878 H      10  UNL10       0.0521
     58 H          -0.6016    3.0043   20.6801 H      10  UNL10       0.0521
     59 H           0.1694    4.5882   20.4046 H      10  UNL10       0.0521
     60 H          -0.7050    3.5509   22.9029 H      10  UNL10       0.2090
     61 O           0.5362    6.6729   -0.5377 O.3    11  UNL11      -0.3982
     62 C          -0.8796    6.6729   -0.5377 C.3    11  UNL11       0.0330
     63 H          -1.2449    6.5841   -1.5638 H      11  UNL11       0.0521
     64 H          -1.2448    7.5996   -0.0885 H      11  UNL11       0.0521
     65 H          -1.2349    5.8219    0.0481 H      11  UNL11       0.0521
     66 H           0.8219    7.4385   -1.0647 H      11  UNL11       0.2090
     67 O           0.5362    6.9426    2.1523 O.3    12  UNL12      -0.3982
     68 C          -0.8796    6.9426    2.1523 C.3    12  UNL12       0.0330
     69 H          -1.2449    6.1736    2.8375 H      12  UNL12       0.0521
     70 H          -1.2448    6.7479    1.1410 H      12  UNL12       0.0521
     71 H          -1.2349    7.9212    2.4835 H      12  UNL12       0.0521
     72 H           0.8219    6.0622    1.8543 H      12  UNL12       0.2090
     73 O          -0.7787    5.7378    4.8799 O.3    13  UNL13      -0.3982
     74 C          -0.2884    7.0660    4.8799 C.3    13  UNL13       0.0330
     75 H          -0.8834    7.6750    5.5651 H      13  UNL13       0.0521
     76 H          -0.3446    7.4760    3.8686 H      13  UNL13       0.0521
     77 H           0.7527    7.0605    5.2111 H      13  UNL13       0.0521
     78 H          -1.7035    5.7746    4.5819 H      13  UNL13       0.2090
     79 O           0.5362    6.7192   13.1438 O.3    14  UNL14      -0.3982
     80 C          -0.8796    6.7192   13.1438 C.3    14  UNL14       0.0330
     81 H          -1.2449    6.2183   12.2439 H      14  UNL14       0.0521
     82 H          -1.2448    7.7486   13.1745 H      14  UNL14       0.0521
     83 H          -1.2349    6.1825   14.0266 H      14  UNL14       0.0521
     84 H           0.8219    7.2021   12.3497 H      14  UNL14       0.2090
     85 O          -0.9456    7.6954   15.2774 O.3    15  UNL15      -0.3982
     86 C          -0.2530    6.5671   15.7793 C.3    15  UNL15       0.0330
     87 H          -0.7867    5.6559   15.4980 H      15  UNL15       0.0521
     88 H          -0.1795    6.6380   16.8672 H      15  UNL15       0.0521
     89 H           0.7510    6.5462   15.3491 H      15  UNL15       0.0521
     90 H          -1.8322    7.6872   15.6765 H      15  UNL15       0.2090
     91 O          -1.4854    6.9426   17.9483 O.3    16  UNL16      -0.3982
     92 C          -0.2158    6.9426   18.5749 C.3    16  UNL16       0.0330
     93 H           0.4150    6.1736   18.1221 H      16  UNL16       0.0521
     94 H          -0.3358    6.7479   19.6434 H      16  UNL16       0.0521
     95 H           0.2494    7.9212   18.4351 H      16  UNL16       0.0521
     96 H          -1.8735    6.0622   18.0891 H      16  UNL16       0.2090
     97 O          -1.4861    7.2029   22.5523 O.3    17  UNL17      -0.3982
     98 C          -0.2165    6.8610   22.0273 C.3    17  UNL17       0.0330
     99 H          -0.3355    6.1063   21.2459 H      17  UNL17       0.0521
    100 H           0.4180    6.4744   22.8285 H      17  UNL17       0.0521
    101 H           0.2439    7.7550   21.6002 H      17  UNL17       0.0521
    102 H          -1.8698    6.3904   22.9239 H      17  UNL17       0.2090
    103 O           0.5362    9.5319    4.7234 O.3    18  UNL18      -0.3982
    104 C          -0.8796    9.5319    4.7234 C.3    18  UNL18       0.0330
    105 H          -1.2449   10.5247    4.4493 H      18  UNL18       0.0521
    106 H          -1.2448    9.2589    5.7165 H      18  UNL18       0.0521
    107 H          -1.2349    8.8009    3.9934 H      18  UNL18       0.0521
    108 H           0.8219   10.1895    5.3803 H      18  UNL18       0.2090
    109 O          -1.1871    9.0336   16.3728 O.3    19  UNL19      -0.3982
    110 C          -0.2326    9.6601   15.5357 C.3    19  UNL19       0.0330
    111 H           0.2097   10.5113   16.0592 H      19  UNL19       0.0521
    112 H          -0.7179    9.9963   14.6162 H      19  UNL19       0.0521
    113 H           0.5509    8.9397   15.2890 H      19  UNL19       0.0521
    114 H          -1.8691    9.6966   16.5746 H      19  UNL19       0.2090
    115 O           0.0859   12.7499    2.9510 O.3    20  UNL20      -0.3982
    116 C          -0.8000   12.5854    1.8589 C.3    20  UNL20       0.0330
    117 H          -1.5123   11.7875    2.0833 H      20  UNL20       0.0521
    118 H          -0.2299   12.3374    0.9603 H      20  UNL20       0.0521
    119 H          -1.3422   13.5201    1.6974 H      20  UNL20       0.0521
    120 H           0.5525   11.9051    3.0701 H      20  UNL20       0.2090
    121 O           0.5362   12.6252    4.8799 O.3    21  UNL21      -0.3982
    122 C          -0.8796   12.6252    4.8799 C.3    21  UNL21       0.0330
    123 H          -1.2449   11.8562    5.5651 H      21  UNL21       0.0521
    124 H          -1.2448   12.4305    3.8686 H      21  UNL21       0.0521
    125 H          -1.2349   13.6038    5.2111 H      21  UNL21       0.0521
    126 H           0.8219   11.7448    4.5819 H      21  UNL21       0.2090
    127 O           0.0252   12.1484    6.6911 O.3    22  UNL22      -0.3982
    128 C          -0.7759   12.3935    7.8325 C.3    22  UNL22       0.0330
    129 H          -1.5310   13.1467    7.5940 H      22  UNL22       0.0521
    130 H          -0.1447   12.7422    8.6536 H      22  UNL22       0.0521
    131 H          -1.2707   11.4646    8.1254 H      22  UNL22       0.0521
    132 H           0.4512   12.9900    6.4550 H      22  UNL22       0.2090
    133 O           0.1040   13.1747   13.4887 O.3    23  UNL23      -0.3982
    134 C          -1.0345   12.7086   12.7881 C.3    23  UNL23       0.0330
    135 H          -1.7748   12.3362   13.5006 H      23  UNL23       0.0521
    136 H          -0.7398   11.9108   12.1020 H      23  UNL23       0.0521
    137 H          -1.4644   13.5358   12.2183 H      23  UNL23       0.0521
    138 H           0.4635   12.4194   13.9845 H      23  UNL23       0.2090
    139 O           0.5362   12.3300   15.7613 O.3    24  UNL24      -0.3982
    140 C          -0.8796   12.3300   15.7613 C.3    24  UNL24       0.0330
    141 H          -1.2449   12.7163   14.8066 H      24  UNL24       0.0521
    142 H          -1.2448   12.9521   16.5821 H      24  UNL24       0.0521
    143 H          -1.2349   11.3058   15.8974 H      24  UNL24       0.0521
    144 H           0.8219   13.2513   15.6390 H      24  UNL24       0.2090
    145 O          -1.1943   11.8493   17.8706 O.3    25  UNL25      -0.3982
    146 C          -0.5096   12.7664   18.7040 C.3    25  UNL25       0.0330
    147 H           0.2015   13.3423   18.1066 H      25  UNL25       0.0521
    148 H           0.0168   12.2216   19.4915 H      25  UNL25       0.0521
    149 H          -1.2358   13.4455   19.1569 H      25  UNL25       0.0521
    150 H          -0.5246   11.2603   17.4832 H      25  UNL25       0.2090
    151 O          -1.9012   16.0717    2.2800 O.3    26  UNL26      -0.3982
    152 C          -1.0539   15.3228    3.1318 C.3    26  UNL26       0.0330
    153 H          -0.2192   15.9480    3.4585 H      26  UNL26       0.0521
    154 H          -0.6794   14.4470    2.5963 H      26  UNL26       0.0521
    155 H          -1.6253   14.9968    4.0041 H      26  UNL26       0.0521
    156 H          -1.3669   16.3470    1.5157 H      26  UNL26       0.2090
    157 O          -1.4515   15.9177   10.2871 O.3    27  UNL27      -0.3982
    158 C          -0.1819   15.2976   10.3770 C.3    27  UNL27       0.0330
    159 H           0.1850   15.0692    9.3732 H      27  UNL27       0.0521
    160 H          -0.2645   14.3797   10.9640 H      27  UNL27       0.0521
    161 H           0.5133   15.9813   10.8698 H      27  UNL27       0.0521
    162 H          -2.0465   15.2877    9.8459 H      27  UNL27       0.2090
    163 O           0.5362   15.2963   12.8637 O.3    28  UNL28      -0.3982
    164 C          -0.8796   15.2963   12.8637 C.3    28  UNL28       0.0330
    165 H          -1.2449   16.2654   13.2124 H      28  UNL28       0.0521
    166 H          -1.2448   14.5005   13.5174 H      28  UNL28       0.0521
    167 H          -1.2349   15.1202   11.8456 H      28  UNL28       0.0521
    168 H           0.8219   15.4546   13.7795 H      28  UNL28       0.2090
    169 O          -1.1241   14.5183   15.2971 O.3    29  UNL29      -0.3982
    170 C          -0.5400   15.6472   15.9207 C.3    29  UNL29       0.0330
    171 H           0.0743   16.1876   15.1963 H      29  UNL29       0.0521
    172 H           0.0737   15.3218   16.7642 H      29  UNL29       0.0521
    173 H          -1.3346   16.3037   16.2830 H      29  UNL29       0.0521
    174 H          -0.3953   13.9547   14.9862 H      29  UNL29       0.2090
    175 O          -1.5546   14.9631   18.3039 O.3    30  UNL30      -0.3982
    176 C          -0.2850   15.4396   18.7107 C.3    30  UNL30       0.0330
    177 H          -0.0787   16.3942   18.2204 H      30  UNL30       0.0521
    178 H           0.4820   14.7080   18.4449 H      30  UNL30       0.0521
    179 H          -0.2894   15.5823   19.7939 H      30  UNL30       0.0521
    180 H          -1.5202   14.8461   17.3391 H      30  UNL30       0.2090
    181 O           0.5362   15.1968   22.2827 O.3    31  UNL31      -0.3982
    182 C          -0.8796   15.1968   22.2827 C.3    31  UNL31       0.0330
    183 H          -1.2449   15.1080   21.2566 H      31  UNL31       0.0521
    184 H          -1.2448   16.1235   22.7319 H      31  UNL31       0.0521
    185 H          -1.2349   14.3458   22.8685 H      31  UNL31       0.0521
    186 H           0.8219   15.9624   21.7557 H      31  UNL31       0.2090
    187 O          -0.0139   17.5548    2.0735 O.3    32  UNL32      -0.3982
    188 C          -1.0783   18.4787    2.2075 C.3    32  UNL32       0.0330
    189 H          -1.4114   18.7984    1.2169 H      32  UNL32       0.0521
    190 H          -0.7417   19.3421    2.7866 H      32  UNL32       0.0521
    191 H          -1.9065   17.9934    2.7290 H      32  UNL32       0.0521
    192 H           0.7058   18.0137    1.6075 H      32  UNL32       0.2090
    193 O           0.5362   18.3041   15.6828 O.3    33  UNL33      -0.3982
    194 C          -0.8796   18.3041   15.6828 C.3    33  UNL33       0.0330
    195 H          -1.2449   18.1778   16.7050 H      33  UNL33       0.0521
    196 H          -1.2448   17.4909   15.0509 H      33  UNL33       0.0521
    197 H          -1.2349   19.2583   15.2866 H      33  UNL33       0.0521
    198 H           0.8219   17.4458   16.0393 H      33  UNL33       0.2090
    199 O          -1.0079   21.8575    4.2716 O.3    34  UNL34      -0.3982
    200 C          -0.0613   21.1750    5.0734 C.3    34  UNL34       0.0330
    201 H           0.5924   20.5747    4.4357 H      34  UNL34       0.0521
    202 H          -0.5828   20.5321    5.7867 H      34  UNL34       0.0521
    203 H           0.5378   21.9085    5.6179 H      34  UNL34       0.0521
    204 H          -1.5242   21.1811    3.8010 H      34  UNL34       0.2090
    205 O           0.0035   21.6774   10.7233 O.3    35  UNL35      -0.3982
    206 C          -1.0637   21.0229   10.0622 C.3    35  UNL35       0.0330
    207 H          -0.6791   20.1589    9.5145 H      35  UNL35       0.0521
    208 H          -1.5479   21.7188    9.3727 H      35  UNL35       0.0521
    209 H          -1.7896   20.6863   10.8061 H      35  UNL35       0.0521
    210 H           0.6309   21.9646   10.0382 H      35  UNL35       0.2090
    211 O          -0.7306   21.2712   19.5064 O.3    36  UNL36      -0.3982
    212 C          -0.5852   21.0890   18.1099 C.3    36  UNL36       0.0330
    213 H          -1.0439   20.1418   17.8154 H      36  UNL36       0.0521
    214 H           0.4762   21.0884   17.8503 H      36  UNL36       0.0521
    215 H          -1.0847   21.9103   17.5906 H      36  UNL36       0.0521
    216 H          -0.2778   20.5281   19.9402 H      36  UNL36       0.2090
    217 O           0.3362   20.8849   21.9025 O.3    37  UNL37      -0.3982
    218 C          -1.0796   20.8849   21.9025 C.3    37  UNL37       0.0330
    219 H          -1.4449   21.8376   21.5110 H      37  UNL37       0.0521
    220 H          -1.4448   20.7333   22.9211 H      37  UNL37       0.0521
    221 H          -1.4349   20.0714   21.2656 H      37  UNL37       0.0521
    222 H           0.6219   21.6167   22.4755 H      37  UNL37       0.2090
    223 O           0.1348   22.7534   -1.2245 O.3    38  UNL38      -0.3982
    224 C          -0.5725   23.7931   -0.5737 C.3    38  UNL38       0.0330
    225 H          -1.2305   24.2913   -1.2900 H      38  UNL38       0.0521
    226 H           0.1370   24.5105   -0.1543 H      38  UNL38       0.0521
    227 H          -1.1728   23.3642    0.2320 H      38  UNL38       0.0521
    228 H           0.6579   23.1642   -1.9337 H      38  UNL38       0.2090
    229 O          -1.3292   23.1038    2.4100 O.3    39  UNL39      -0.3982
    230 C          -0.2306   23.9516    2.1293 C.3    39  UNL39       0.0330
    231 H           0.3839   24.0624    3.0263 H      39  UNL39       0.0521
    232 H          -0.5968   24.9280    1.8028 H      39  UNL39       0.0521
    233 H           0.3687   23.5047    1.3327 H      39  UNL39       0.0521
    234 H          -1.8420   23.5262    3.1200 H      39  UNL39       0.2090
    235 O           0.4905   23.5770    5.0485 O.3    40  UNL40      -0.3982
    236 C          -0.8390   24.0474    4.9232 C.3    40  UNL40       0.0330
    237 H          -1.5333   23.2081    5.0121 H      40  UNL40       0.0521
    238 H          -0.9637   24.5361    3.9539 H      40  UNL40       0.0521
    239 H          -1.0377   24.7677    5.7202 H      40  UNL40       0.0521
    240 H           0.6373   22.9403    4.3284 H      40  UNL40       0.2090
    241 O           0.1859   23.4824   13.7514 O.3    41  UNL41      -0.3982
    242 C          -0.6418   23.7794   12.6418 C.3    41  UNL41       0.0330
    243 H          -0.9139   22.8526   12.1306 H      41  UNL41       0.0521
    244 H          -0.1094   24.4433   11.9563 H      41  UNL41       0.0521
    245 H          -1.5475   24.2765   12.9970 H      41  UNL41       0.0521
    246 H           0.9809   23.0424   13.4051 H      41  UNL41       0.2090
    247 O          -0.8177   22.9817   15.3415 O.3    42  UNL42      -0.3982
    248 C          -0.3323   24.1514   15.9745 C.3    42  UNL42       0.0330
    249 H           0.1247   23.8862   16.9311 H      42  UNL42       0.0521
    250 H          -1.1576   24.8496   16.1340 H      42  UNL42       0.0521
    251 H           0.4178   24.6180   15.3317 H      42  UNL42       0.0521
    252 H          -1.4809   22.5899   15.9349 H      42  UNL42       0.2090
    253 O          -1.4981   24.0588   17.9974 O.3    43  UNL43      -0.3982
    254 C          -0.2285   23.6457   18.4684 C.3    43  UNL43       0.0330
    255 H          -0.3234   23.2650   19.4884 H      43  UNL43       0.0521
    256 H           0.4622   24.4921   18.4468 H      43  UNL43       0.0521
    257 H           0.1503   22.8525   17.8196 H      43  UNL43       0.0521
    258 H          -1.8085   24.7625   18.5924 H      43  UNL43       0.2090
    259 O          -1.5432   24.2546   22.0853 O.3    44  UNL44      -0.3982
    260 C          -0.2748   23.6261   22.0601 C.3    44  UNL44       0.0330
    261 H          -0.1561   23.0068   22.9527 H      44  UNL44       0.0521
    262 H           0.5090   24.3867   22.0245 H      44  UNL44       0.0521
    263 H          -0.2082   22.9957   21.1704 H      44  UNL44       0.0521
    264 H          -1.5726   24.8067   22.8852 H      44  UNL44       0.2090
    265 O          -1.2807   30.0769    2.1031 O.3    45  UNL45      -0.3982
    266 C           0.0265   29.5356    2.0512 C.3    45  UNL45       0.0330
    267 H           0.0613   28.7357    1.3074 H      45  UNL45       0.0521
    268 H           0.2996   29.1454    3.0346 H      45  UNL45       0.0521
    269 H           0.7267   30.3247    1.7674 H      45  UNL45       0.0521
    270 H          -1.8794   29.3539    2.3572 H      45  UNL45       0.2090
    271 O          -0.7076   30.2433    3.8871 O.3    46  UNL46      -0.3982
    272 C          -0.6871   29.5432    5.1175 C.3    46  UNL46       0.0330
    273 H          -0.2923   30.1941    5.9016 H      46  UNL46       0.0521
    274 H          -0.0624   28.6519    5.0202 H      46  UNL46       0.0521
    275 H          -1.7064   29.2448    5.3736 H      46  UNL46       0.0521
    276 H           0.2099   30.4949    3.6862 H      46  UNL46       0.2090
    277 O          -0.4429   30.3570    8.3953 O.3    47  UNL47      -0.3982
    278 C          -0.9137   29.7034    7.2309 C.3    47  UNL47       0.0330
    279 H          -1.6014   28.9027    7.5142 H      47  UNL47       0.0521
    280 H          -0.0673   29.2918    6.6757 H      47  UNL47       0.0521
    281 H          -1.4396   30.4279    6.6049 H      47  UNL47       0.0521
    282 H           0.0190   29.6894    8.9306 H      47  UNL47       0.2090
    283 O           0.3350   30.1493   15.5653 O.3    48  UNL48      -0.3982
    284 C          -0.7567   29.2498   15.6249 C.3    48  UNL48       0.0330
    285 H          -1.6939   29.8119   15.6179 H      48  UNL48       0.0521
    286 H          -0.6861   28.6497   16.5353 H      48  UNL48       0.0521
    287 H          -0.7226   28.5916   14.7536 H      48  UNL48       0.0521
    288 H           0.2782   30.7200   16.3506 H      48  UNL48       0.2090
    289 O          -0.0549   29.7106   19.4249 O.3    49  UNL49      -0.3982
    290 C          -0.8461   29.5632   18.2602 C.3    49  UNL49       0.0330
    291 H          -0.9578   28.5016   18.0264 H      49  UNL49       0.0521
    292 H          -0.3684   30.0827   17.4260 H      49  UNL49       0.0521
    293 H          -1.8311   29.9996   18.4422 H      49  UNL49       0.0521
    294 H           0.8123   29.3146   19.2333 H      49  UNL49       0.2090
    295 O          -1.7625   29.1645   22.2827 O.3    50  UNL50      -0.3982
    296 C          -0.4929   29.7910   22.2827 C.3    50  UNL50       0.0330
    297 H          -0.2046   30.0323   21.2566 H      50  UNL50       0.0521
    298 H           0.2447   29.1216   22.7319 H      50  UNL50       0.0521
    299 H          -0.5508   30.7114   22.8685 H      50  UNL50       0.0521
    300 H          -1.6799   28.3515   21.7557 H      50  UNL50       0.2090
    301 O          -0.3635   32.1845    1.0463 O.3    51  UNL51      -0.3982
    302 C          -0.4675   32.2767    2.4553 C.3    51  UNL51       0.0330
    303 H          -1.5035   32.1039    2.7572 H      51  UNL51       0.0521
    304 H          -0.1423   33.2676    2.7814 H      51  UNL51       0.0521
    305 H           0.1736   31.5175    2.9093 H      51  UNL51       0.0521
    306 H          -0.9427   32.8698    0.6716 H      51  UNL51       0.2090
    307 O           0.5362   32.4580    4.9554 O.3    52  UNL52      -0.3982
    308 C          -0.8796   32.4580    4.9554 C.3    52  UNL52       0.0330
    309 H          -1.2449   31.4330    5.0572 H      52  UNL52       0.0521
    310 H          -1.2448   32.8953    4.0230 H      52  UNL52       0.0521
    311 H          -1.2349   33.0546    5.7988 H      52  UNL52       0.0521
    312 H           0.8219   31.9212    4.1965 H      52  UNL52       0.2090
    313 O          -0.2331   31.3513   10.0602 O.3    53  UNL53      -0.3982
    314 C          -0.7072   32.6809   10.1697 C.3    53  UNL53       0.0330
    315 H           0.1315   33.3525   10.3691 H      53  UNL53       0.0521
    316 H          -1.4378   32.7425   10.9798 H      53  UNL53       0.0521
    317 H          -1.1843   32.9665    9.2292 H      53  UNL53       0.0521
    318 H           0.1848   31.1262   10.9089 H      53  UNL53       0.2090
    319 O          -1.4133   31.5641   13.3003 O.3    54  UNL54      -0.3982
    320 C          -0.4587   32.4825   12.8004 C.3    54  UNL54       0.0330
    321 H           0.1874   32.8177   13.6155 H      54  UNL54       0.0521
    322 H          -0.9731   33.3370   12.3539 H      54  UNL54       0.0521
    323 H           0.1470   31.9860   12.0387 H      54  UNL54       0.0521
    324 H          -1.9354   32.0328   13.9735 H      54  UNL54       0.2090
    325 O          -0.0664   32.6532   19.3723 O.3    55  UNL55      -0.3982
    326 C          -1.0012   32.2080   18.4068 C.3    55  UNL55       0.0330
    327 H          -1.7570   31.5843   18.8905 H      55  UNL55       0.0521
    328 H          -0.4829   31.6368   17.6328 H      55  UNL55       0.0521
    329 H          -1.4846   33.0766   17.9533 H      55  UNL55       0.0521
    330 H           0.3461   31.8611   19.7571 H      55  UNL55       0.2090
    331 O           0.5362   32.4476   22.0653 O.3    56  UNL56      -0.3982
    332 C          -0.8796   32.4476   22.0653 C.3    56  UNL56       0.0330
    333 H          -1.2449   32.9592   22.9592 H      56  UNL56       0.0521
    334 H          -1.2448   31.4178   22.0470 H      56  UNL56       0.0521
    335 H          -1.2349   32.9737   21.1762 H      56  UNL56       0.0521
    336 H           0.8219   31.9742   22.8652 H      56  UNL56       0.2090
    337 O           0.5362   35.2370   -0.4739 O.3    57  UNL57      -0.3982
    338 C          -0.8796   35.2370   -0.4739 C.3    57  UNL57       0.0330
    339 H          -1.2449   34.2684   -0.8242 H      57  UNL57       0.0521
    340 H          -1.2448   36.0338   -1.1265 H      57  UNL57       0.0521
    341 H          -1.2349   35.4114    0.5444 H      57  UNL57       0.0521
    342 H           0.8219   35.0801   -1.3901 H      57  UNL57       0.2090
    343 O          -0.8349   36.9066    5.6625 O.3    58  UNL58      -0.3982
    344 C          -0.5291   35.9674    4.6482 C.3    58  UNL58       0.0330
    345 H          -0.5998   36.4500    3.6702 H      58  UNL58       0.0521
    346 H          -1.2278   35.1291    4.7041 H      58  UNL58       0.0521
    347 H           0.4891   35.6009    4.7985 H      58  UNL58       0.0521
    348 H          -1.7435   37.2138    5.5030 H      58  UNL58       0.2090
    349 O          -0.8873   34.5626    6.7568 O.3    59  UNL59      -0.3982
    350 C          -0.3730   35.2405    7.8884 C.3    59  UNL59       0.0330
    351 H          -1.1819   35.7744    8.3933 H      59  UNL59       0.0521
    352 H           0.4006   35.9444    7.5720 H      59  UNL59       0.0521
    353 H           0.0613   34.5090    8.5738 H      59  UNL59       0.0521
    354 H          -1.2657   35.2370    6.1673 H      59  UNL59       0.2090
    355 O           0.5362   35.1036   10.1785 O.3    60  UNL60      -0.3982
    356 C          -0.8796   35.1036   10.1785 C.3    60  UNL60       0.0330
    357 H          -1.2449   36.0964    9.9044 H      60  UNL60       0.0521
    358 H          -1.2448   34.8306   11.1716 H      60  UNL60       0.0521
    359 H          -1.2349   34.3726    9.4485 H      60  UNL60       0.0521
    360 H           0.8219   35.7612   10.8354 H      60  UNL60       0.2090
    361 O          -0.8977   36.6324   14.0174 O.3    61  UNL61      -0.3982
    362 C          -0.6228   36.3654   12.6545 C.3    61  UNL61       0.0330
    363 H          -0.1977   35.3634   12.5570 H      61  UNL61       0.0521
    364 H           0.0795   37.1096   12.2710 H      61  UNL61       0.0521
    365 H          -1.5545   36.4204   12.0867 H      61  UNL61       0.0521
    366 H          -0.0528   36.5766   14.4956 H      61  UNL61       0.2090
    367 O          -0.5635   33.9035   16.7845 O.3    62  UNL62      -0.3982
    368 C          -0.5600   34.1118   15.3841 C.3    62  UNL62       0.0330
    369 H           0.3951   34.5487   15.0822 H      62  UNL62       0.0521
    370 H          -1.3807   34.7800   15.1122 H      62  UNL62       0.0521
    371 H          -0.6937   33.1509   14.8816 H      62  UNL62       0.0521
    372 H          -0.4432   34.7729   17.2030 H      62  UNL62       0.2090
    373 O           0.5362   36.2677   16.6182 O.3    63  UNL63      -0.3982
    374 C          -0.8796   36.2677   16.6182 C.3    63  UNL63       0.0330
    375 H          -1.2449   37.0451   15.9426 H      63  UNL63       0.0521
    376 H          -1.2448   36.4498   17.6318 H      63  UNL63       0.0521
    377 H          -1.2349   35.2933   16.2749 H      63  UNL63       0.0521
    378 H           0.8219   37.1443   16.9271 H      63  UNL63       0.2090
    379 O          -0.5208   35.3556   22.2745 O.3    64  UNL64      -0.3982
    380 C          -0.6114   35.3556   20.8616 C.3    64  UNL64       0.0330
    381 H          -1.3185   34.5866   20.5408 H      64  UNL64       0.0521
    382 H           0.3745   35.1609   20.4325 H      64  UNL64       0.0521
    383 H          -0.9646   36.3342   20.5282 H      64  UNL64       0.0521
    384 H          -0.2052   34.4752   22.5406 H      64  UNL64       0.2090
    385 O           1.1259    0.5493   -0.1911 O.3    65  UNL65      -0.3982
    386 C          -0.0127    1.1112   -0.8176 C.3    65  UNL65       0.0330
    387 H           0.3058    1.8115   -1.5938 H      65  UNL65       0.0521
    388 H          -0.6215    1.6287   -0.0724 H      65  UNL65       0.0521
    389 H          -0.6000    0.3097   -1.2719 H      65  UNL65       0.0521
    390 H           1.6270    1.2838    0.2025 H      65  UNL65       0.2090
    391 O           1.7813    1.0080    1.9959 O.3    66  UNL66      -0.3982
    392 C           0.3655    1.0080    1.9959 C.3    66  UNL66       0.0330
    393 H           0.0002    2.0008    1.7217 H      66  UNL66       0.0521
    394 H           0.0003    0.7350    2.9889 H      66  UNL66       0.0521
    395 H           0.0102    0.2770    1.2658 H      66  UNL66       0.0521
    396 H           2.0670    1.6656    2.6527 H      66  UNL66       0.2090
    397 O           3.7813    1.0080    4.7234 O.3    67  UNL67      -0.3982
    398 C           2.3655    1.0080    4.7234 C.3    67  UNL67       0.0330
    399 H           2.0002    2.0008    4.4493 H      67  UNL67       0.0521
    400 H           2.0003    0.7350    5.7165 H      67  UNL67       0.0521
    401 H           2.0102    0.2770    3.9934 H      67  UNL67       0.0521
    402 H           4.0670    1.6656    5.3803 H      67  UNL67       0.2090
    403 O           1.7446    0.8749    8.4481 O.3    68  UNL68      -0.3982
    404 C           0.5719    1.0599    7.6767 C.3    68  UNL68       0.0330
    405 H           0.0430    0.1083    7.5821 H      68  UNL68       0.0521
    406 H           0.8412    1.4391    6.6879 H      68  UNL68       0.0521
    407 H          -0.0732    1.7845    8.1791 H      68  UNL68       0.0521
    408 H           2.2969    0.2275    7.9776 H      68  UNL68       0.2090
    409 O           1.7813    1.2655   10.3138 O.3    69  UNL69      -0.3982
    410 C           0.3655    1.2655   10.3138 C.3    69  UNL69       0.0330
    411 H           0.0002    0.6028   11.1022 H      69  UNL69       0.0521
    412 H           0.0003    0.9277    9.3409 H      69  UNL69       0.0521
    413 H           0.0102    2.2815   10.5011 H      69  UNL69       0.0521
    414 H           2.0670    0.3514   10.1452 H      69  UNL69       0.2090
    415 O           0.9876    0.0665   13.0625 O.3    70  UNL70      -0.3982
    416 C           0.8029    1.4702   13.0625 C.3    70  UNL70       0.0330
    417 H          -0.0072    1.7321   13.7477 H      70  UNL70       0.0521
    418 H           0.5623    1.8069   12.0512 H      70  UNL70       0.0521
    419 H           1.7268    1.9501   13.3937 H      70  UNL70       0.0521
    420 H           0.1520   -0.3316   12.7645 H      70  UNL70       0.2090
    421 O           3.7813    1.2367   15.8338 O.3    71  UNL71      -0.3982
    422 C           2.3655    1.2367   15.8338 C.3    71  UNL71       0.0330
    423 H           2.0002    0.2884   16.2359 H      71  UNL71       0.0521
    424 H           2.0003    1.3769   14.8135 H      71  UNL71       0.0521
    425 H           2.0102    2.0571   16.4616 H      71  UNL71       0.0521
    426 H           4.0670    0.4985   15.2689 H      71  UNL71       0.2090
    427 O           2.7439    0.7638   19.4975 O.3    72  UNL72      -0.3982
    428 C           2.5324    1.3256   18.2153 C.3    72  UNL72       0.0330
    429 H           2.3561    0.5266   17.4909 H      72  UNL72       0.0521
    430 H           3.4085    1.9098   17.9234 H      72  UNL72       0.0521
    431 H           1.6578    1.9792   18.2536 H      72  UNL72       0.0521
    432 H           3.5257    0.1893   19.4322 H      72  UNL72       0.2090
    433 O           1.7813    1.2600   22.2452 O.3    73  UNL73      -0.3982
    434 C           0.3655    1.2600   22.2452 C.3    73  UNL73       0.0330
    435 H           0.0002    0.4910   22.9304 H      73  UNL73       0.0521
    436 H           0.0003    1.0653   21.2339 H      73  UNL73       0.0521
    437 H           0.0102    2.2386   22.5764 H      73  UNL73       0.0521
    438 H           2.0670    0.3796   21.9472 H      73  UNL73       0.2090
    439 O           2.9745    4.9854   -0.3943 O.3    74  UNL74      -0.3982
    440 C           2.4867    3.7249   -0.8156 C.3    74  UNL74       0.0330
    441 H           2.1006    3.1758    0.0468 H      74  UNL74       0.0521
    442 H           3.2939    3.1604   -1.2887 H      74  UNL74       0.0521
    443 H           1.6810    3.8788   -1.5373 H      74  UNL74       0.0521
    444 H           3.6877    4.8167    0.2448 H      74  UNL74       0.2090
    445 O           3.5813    4.0496    1.7826 O.3    75  UNL75      -0.3982
    446 C           2.1655    4.0496    1.7826 C.3    75  UNL75       0.0330
    447 H           1.8002    4.4513    2.7310 H      75  UNL75       0.0521
    448 H           1.8003    3.0294    1.6420 H      75  UNL75       0.0521
    449 H           1.8102    4.6777    0.9623 H      75  UNL75       0.0521
    450 H           3.8670    3.4845    2.5205 H      75  UNL75       0.2090
    451 O           2.7813    4.1013    4.8799 O.3    76  UNL76      -0.3982
    452 C           1.3655    4.1013    4.8799 C.3    76  UNL76       0.0330
    453 H           1.0002    3.3323    5.5651 H      76  UNL76       0.0521
    454 H           1.0003    3.9066    3.8686 H      76  UNL76       0.0521
    455 H           1.0102    5.0799    5.2111 H      76  UNL76       0.0521
    456 H           3.0670    3.2209    4.5819 H      76  UNL76       0.2090
    457 O           2.2866    2.3414    6.6440 O.3    77  UNL77      -0.3982
    458 C           2.6497    2.8536    7.9129 C.3    77  UNL77       0.0330
    459 H           2.9703    3.8932    7.8092 H      77  UNL77       0.0521
    460 H           3.4597    2.2514    8.3316 H      77  UNL77       0.0521
    461 H           1.7831    2.8063    8.5765 H      77  UNL77       0.0521
    462 H           3.0750    2.3962    6.0775 H      77  UNL77       0.2090
    463 O           3.4776    4.3712   11.1127 O.3    78  UNL78      -0.3982
    464 C           2.6441    3.7171   10.1736 C.3    78  UNL78       0.0330
    465 H           3.2616    3.2031    9.4327 H      78  UNL78       0.0521
    466 H           2.0016    4.4514    9.6817 H      78  UNL78       0.0521
    467 H           2.0236    2.9863   10.6976 H      78  UNL78       0.0521
    468 H           4.0158    5.0129   10.6187 H      78  UNL78       0.2090
    469 O           1.5763    3.9941   12.2468 O.3    79  UNL79      -0.3982
    470 C           2.8459    3.8162   12.8475 C.3    79  UNL79       0.0330
    471 H           2.7194    3.4238   13.8596 H      79  UNL79       0.0521
    472 H           3.3722    4.7733   12.8794 H      79  UNL79       0.0521
    473 H           3.4237    3.1048   12.2529 H      79  UNL79       0.0521
    474 H           1.0869    4.6299   12.7961 H      79  UNL79       0.2090
    475 O           1.6740    3.6224   15.6385 O.3    80  UNL80      -0.3982
    476 C           2.9436    4.1910   15.9015 C.3    80  UNL80       0.0330
    477 H           3.3624    4.5937   14.9759 H      80  UNL80       0.0521
    478 H           3.6080    3.4269   16.3124 H      80  UNL80       0.0521
    479 H           2.8276    4.9987   16.6280 H      80  UNL80       0.0521
    480 H           1.8088    2.9094   14.9912 H      80  UNL80       0.2090
    481 O           3.7813    3.8493   18.3612 O.3    81  UNL81      -0.3982
    482 C           2.3655    3.8493   18.3612 C.3    81  UNL81       0.0330
    483 H           2.0002    4.8421   18.0870 H      81  UNL81       0.0521
    484 H           2.0003    3.5763   19.3542 H      81  UNL81       0.0521
    485 H           2.0102    3.1183   17.6311 H      81  UNL81       0.0521
    486 H           4.0670    4.5069   19.0180 H      81  UNL81       0.2090
    487 O           2.3613    4.8959   20.5667 O.3    82  UNL82      -0.3982
    488 C           2.9613    3.6894   21.0012 C.3    82  UNL82       0.0330
    489 H           2.2775    2.8560   20.8218 H      82  UNL82       0.0521
    490 H           3.1946    3.7605   22.0664 H      82  UNL82       0.0521
    491 H           3.8838    3.5285   20.4385 H      82  UNL82       0.0521
    492 H           1.5458    5.0117   21.0835 H      82  UNL82       0.2090
    493 O           3.7813    6.9426   -0.5752 O.3    83  UNL83      -0.3982
    494 C           2.3655    6.9426   -0.5752 C.3    83  UNL83       0.0330
    495 H           2.0002    6.1736    0.1100 H      83  UNL83       0.0521
    496 H           2.0003    6.7479   -1.5865 H      83  UNL83       0.0521
    497 H           2.0102    7.9212   -0.2440 H      83  UNL83       0.0521
    498 H           4.0670    6.0622   -0.8732 H      83  UNL83       0.2090
    499 O           3.7813    6.9426    2.1523 O.3    84  UNL84      -0.3982
    500 C           2.3655    6.9426    2.1523 C.3    84  UNL84       0.0330
    501 H           2.0002    6.1736    2.8375 H      84  UNL84       0.0521
    502 H           2.0003    6.7479    1.1410 H      84  UNL84       0.0521
    503 H           2.0102    7.9212    2.4835 H      84  UNL84       0.0521
    504 H           4.0670    6.0622    1.8543 H      84  UNL84       0.2090
    505 O           3.2533    7.7179    5.0214 O.3    85  UNL85      -0.3982
    506 C           2.6845    6.4768    4.6465 C.3    85  UNL85       0.0330
    507 H           1.6978    6.6448    4.2079 H      85  UNL85       0.0521
    508 H           2.5995    5.8335    5.5257 H      85  UNL85       0.0521
    509 H           3.3321    5.9977    3.9084 H      85  UNL85       0.0521
    510 H           2.6571    8.1192    5.6764 H      85  UNL85       0.2090
    511 O           1.9813    6.9113    7.4565 O.3    86  UNL86      -0.3982
    512 C           0.5655    6.9113    7.4565 C.3    86  UNL86       0.0330
    513 H           0.2002    7.1339    8.4622 H      86  UNL86       0.0521
    514 H           0.2003    5.9337    7.1328 H      86  UNL86       0.0521
    515 H           0.2102    7.6781    6.7641 H      86  UNL86       0.0521
    516 H           2.2670    6.2215    8.0794 H      86  UNL86       0.2090
    517 O           1.7813    6.6906   10.1785 O.3    87  UNL87      -0.3982
    518 C           0.3655    6.6906   10.1785 C.3    87  UNL87       0.0330
    519 H           0.0002    7.6834    9.9044 H      87  UNL87       0.0521
    520 H           0.0003    6.4176   11.1716 H      87  UNL87       0.0521
    521 H           0.0102    5.9596    9.4485 H      87  UNL87       0.0521
    522 H           2.0670    7.3482   10.8354 H      87  UNL87       0.2090
    523 O           3.7813    6.7308   12.8772 O.3    88  UNL88      -0.3982
    524 C           2.3655    6.7308   12.8772 C.3    88  UNL88       0.0330
    525 H           2.0002    7.7591   12.9363 H      88  UNL88       0.0521
    526 H           2.0003    6.1535   13.7301 H      88  UNL88       0.0521
    527 H           2.0102    6.2729   11.9511 H      88  UNL88       0.0521
    528 H           4.0670    7.1428   13.7104 H      88  UNL88       0.2090
    529 O           3.7813    6.6460   15.7394 O.3    89  UNL89      -0.3982
    530 C           2.3655    6.6460   15.7394 C.3    89  UNL89       0.0330
    531 H           2.0002    7.1654   14.8500 H      89  UNL89       0.0521
    532 H           2.0003    7.1439   16.6410 H      89  UNL89       0.0521
    533 H           2.0102    5.6130   15.7271 H      89  UNL89       0.0521
    534 H           4.0670    7.5754   15.7506 H      89  UNL89       0.2090
    535 O           1.7165    6.9426   18.9017 O.3    90  UNL90      -0.3982
    536 C           2.9861    6.9426   18.2752 C.3    90  UNL90       0.0330
    537 H           3.0105    6.1736   17.4991 H      90  UNL90       0.0521
    538 H           3.7611    6.7479   19.0205 H      90  UNL90       0.0521
    539 H           3.1581    7.9212   17.8210 H      90  UNL90       0.0521
    540 H           1.5921    6.0622   19.2954 H      90  UNL90       0.2090
    541 O           3.4817    6.9426   22.9434 O.3    91  UNL91      -0.3982
    542 C           2.4173    6.9426   22.0098 C.3    91  UNL91       0.0330
    543 H           1.6909    6.1736   22.2841 H      91  UNL91       0.0521
    544 H           2.8096    6.7479   21.0087 H      91  UNL91       0.0521
    545 H           1.9318    7.9212   22.0245 H      91  UNL91       0.0521
    546 H           3.8930    6.0622   22.9077 H      91  UNL91       0.2090
    547 O           2.1813    9.7839   -0.5752 O.3    92  UNL92      -0.3982
    548 C           0.7655    9.7839   -0.5752 C.3    92  UNL92       0.0330
    549 H           0.4002    9.0149    0.1100 H      92  UNL92       0.0521
    550 H           0.4003    9.5892   -1.5865 H      92  UNL92       0.0521
    551 H           0.4102   10.7625   -0.2440 H      92  UNL92       0.0521
    552 H           2.4670    8.9035   -0.8732 H      92  UNL92       0.2090
    553 O           1.7813    9.7068    1.9669 O.3    93  UNL93      -0.3982
    554 C           0.3655    9.7068    1.9669 C.3    93  UNL93       0.0330
    555 H           0.0002   10.2859    2.8187 H      93  UNL93       0.0521
    556 H           0.0003    8.6788    2.0280 H      93  UNL93       0.0521
    557 H           0.0102   10.1628    1.0398 H      93  UNL93       0.0521
    558 H           2.0670    9.2965    2.8009 H      93  UNL93       0.2090
    559 O           3.7813    9.5319    4.7234 O.3    94  UNL94      -0.3982
    560 C           2.3655    9.5319    4.7234 C.3    94  UNL94       0.0330
    561 H           2.0002   10.5247    4.4493 H      94  UNL94       0.0521
    562 H           2.0003    9.2589    5.7165 H      94  UNL94       0.0521
    563 H           2.0102    8.8009    3.9934 H      94  UNL94       0.0521
    564 H           4.0670   10.1895    5.3803 H      94  UNL94       0.2090
    565 O           2.3813    9.7839    7.6074 O.3    95  UNL95      -0.3982
    566 C           0.9655    9.7839    7.6074 C.3    95  UNL95       0.0330
    567 H           0.6002    9.0149    8.2926 H      95  UNL95       0.0521
    568 H           0.6003    9.5892    6.5961 H      95  UNL95       0.0521
    569 H           0.6102   10.7625    7.9386 H      95  UNL95       0.0521
    570 H           2.6670    8.9035    7.3094 H      95  UNL95       0.2090
    571 O           1.5813    9.7839   10.3350 O.3    96  UNL96      -0.3982
    572 C           0.1655    9.7839   10.3350 C.3    96  UNL96       0.0330
    573 H          -0.1998    9.0149   11.0202 H      96  UNL96       0.0521
    574 H          -0.1997    9.5892    9.3237 H      96  UNL96       0.0521
    575 H          -0.1898   10.7625   10.6662 H      96  UNL96       0.0521
    576 H           1.8670    8.9035   10.0370 H      96  UNL96       0.2090
    577 O           1.7813    9.7839   13.0625 O.3    97  UNL97      -0.3982
    578 C           0.3655    9.7839   13.0625 C.3    97  UNL97       0.0330
    579 H           0.0002    9.0149   13.7477 H      97  UNL97       0.0521
    580 H           0.0003    9.5892   12.0512 H      97  UNL97       0.0521
    581 H           0.0102   10.7625   13.3937 H      97  UNL97       0.0521
    582 H           2.0670    8.9035   12.7645 H      97  UNL97       0.2090
    583 O           3.7813    9.5319   15.6336 O.3    98  UNL98      -0.3982
    584 C           2.3655    9.5319   15.6336 C.3    98  UNL98       0.0330
    585 H           2.0002   10.5247   15.3595 H      98  UNL98       0.0521
    586 H           2.0003    9.2589   16.6267 H      98  UNL98       0.0521
    587 H           2.0102    8.8009   14.9036 H      98  UNL98       0.0521
    588 H           4.0670   10.1895   16.2905 H      98  UNL98       0.2090
    589 O           1.7813    9.7839   18.5176 O.3    99  UNL99      -0.3982
    590 C           0.3655    9.7839   18.5176 C.3    99  UNL99       0.0330
    591 H           0.0002    9.0149   19.2028 H      99  UNL99       0.0521
    592 H           0.0003    9.5892   17.5063 H      99  UNL99       0.0521
    593 H           0.0102   10.7625   18.8488 H      99  UNL99       0.0521
    594 H           2.0670    8.9035   18.2196 H      99  UNL99       0.2090
    595 O           1.3813    9.5279   22.2998 O.3   100  UNL100     -0.3982
    596 C          -0.0345    9.5279   22.2998 C.3   100  UNL100      0.0330
    597 H          -0.3998    9.2928   21.2970 H     100  UNL100      0.0521
    598 H          -0.3997   10.5095   22.6114 H     100  UNL100      0.0521
    599 H          -0.3898    8.7697   23.0017 H     100  UNL100      0.0521
    600 H           1.6670   10.2099   21.6684 H     100  UNL100      0.2090
    601 O           2.3031   11.8214    0.2175 O.3   101  UNL101     -0.3982
    602 C           2.7455   12.5976   -0.8807 C.3   101  UNL101      0.0330
    603 H           2.7016   13.6580   -0.6199 H     101  UNL101      0.0521
    604 H           2.1114   12.3982   -1.7480 H     101  UNL101      0.0521
    605 H           3.7770   12.3250   -1.1160 H     101  UNL101      0.0521
    606 H           1.3857   12.0853    0.4028 H     101  UNL101      0.2090
    607 O           2.7983   13.5412    2.7009 O.3   102  UNL102     -0.3982
    608 C           2.3291   12.5531    1.8021 C.3   102  UNL102      0.0330
    609 H           1.6578   11.8698    2.3282 H     102  UNL102      0.0521
    610 H           3.1777   12.0018    1.3899 H     102  UNL102      0.0521
    611 H           1.7853   13.0411    0.9898 H     102  UNL102      0.0521
    612 H           3.2763   13.0785    3.4101 H     102  UNL102      0.2090
    613 O           3.7813   12.6252    4.8799 O.3   103  UNL103     -0.3982
    614 C           2.3655   12.6252    4.8799 C.3   103  UNL103      0.0330
    615 H           2.0002   11.8562    5.5651 H     103  UNL103      0.0521
    616 H           2.0003   12.4305    3.8686 H     103  UNL103      0.0521
    617 H           2.0102   13.6038    5.2111 H     103  UNL103      0.0521
    618 H           4.0670   11.7448    4.5819 H     103  UNL103      0.2090
    619 O           3.2166   12.6093    6.6076 O.3   104  UNL104     -0.3982
    620 C           2.4591   12.2875    7.7596 C.3   104  UNL104      0.0330
    621 H           1.8199   13.1333    8.0245 H     104  UNL104      0.0521
    622 H           3.1337   12.0537    8.5868 H     104  UNL104      0.0521
    623 H           1.8361   11.4165    7.5432 H     104  UNL104      0.0521
    624 H           3.7590   13.3851    6.8299 H     104  UNL104      0.2090
    625 O           3.7813   12.3852   10.4046 O.3   105  UNL105     -0.3982
    626 C           2.3655   12.3852   10.4046 C.3   105  UNL105      0.0330
    627 H           2.0002   12.0086    9.4459 H     105  UNL105      0.0521
    628 H           2.0003   13.4013   10.5721 H     105  UNL105      0.0521
    629 H           2.0102   11.7356   11.2080 H     105  UNL105      0.0521
    630 H           4.0670   12.9696    9.6818 H     105  UNL105      0.2090
    631 O           3.2771   12.5738   13.9338 O.3   106  UNL106     -0.3982
    632 C           2.4269   12.6085   12.8023 C.3   106  UNL106      0.0330
    633 H           1.8851   11.6627   12.7232 H     106  UNL106      0.0521
    634 H           3.0235   12.7752   11.9022 H     106  UNL106      0.0521
    635 H           1.7123   13.4265   12.9198 H     106  UNL106      0.0521
    636 H           3.8996   11.8387   13.8010 H     106  UNL106      0.2090
    637 O           3.7813   12.4012   15.6115 O.3   107  UNL107     -0.3982
    638 C           2.3655   12.4012   15.6115 C.3   107  UNL107      0.0330
    639 H           2.0002   13.4306   15.5762 H     107  UNL107      0.0521
    640 H           2.0003   11.9044   16.5136 H     107  UNL107      0.0521
    641 H           2.0102   11.8604   14.7312 H     107  UNL107      0.0521
    642 H           4.0670   12.8877   16.4035 H     107  UNL107      0.2090
    643 O           1.7500   12.3671   18.9791 O.3   108  UNL108     -0.3982
    644 C           2.8996   12.6512   18.2031 C.3   108  UNL108      0.0330
    645 H           3.2261   11.7442   17.6882 H     108  UNL108      0.0521
    646 H           3.6966   13.0210   18.8529 H     108  UNL108      0.0521
    647 H           2.6497   13.4168   17.4649 H     108  UNL108      0.0521
    648 H           2.0024   11.6852   19.6247 H     108  UNL108      0.2090
    649 O           2.0309   11.7962   22.5078 O.3   109  UNL109     -0.3982
    650 C           2.9921   12.5246   21.7662 C.3   109  UNL109      0.0330
    651 H           3.6075   13.1167   22.4480 H     109  UNL109      0.0521
    652 H           2.4841   13.1800   21.0545 H     109  UNL109      0.0521
    653 H           3.6277   11.8223   21.2218 H     109  UNL109      0.0521
    654 H           1.4821   12.4455   22.9798 H     109  UNL109      0.2090
    655 O           1.9813   15.1701   -0.6177 O.3   110  UNL110     -0.3982
    656 C           0.5655   15.1701   -0.6177 C.3   110  UNL110      0.0330
    657 H           0.2002   15.6414   -1.5336 H     110  UNL110      0.0521
    658 H           0.2003   15.7152    0.2560 H     110  UNL110      0.0521
    659 H           0.2102   14.1378   -0.5751 H     110  UNL110      0.0521
    660 H           2.2670   16.0987   -0.6561 H     110  UNL110      0.2090
    661 O           1.3063   14.6557    1.5268 O.3   111  UNL111     -0.3982
    662 C           0.6890   15.3578    2.5900 C.3   111  UNL111      0.0330
    663 H           0.2920   14.6448    3.3168 H     111  UNL111      0.0521
    664 H          -0.1180   15.9807    2.1965 H     111  UNL111      0.0521
    665 H           1.4332   15.9934    3.0755 H     111  UNL111      0.0521
    666 H           0.6219   14.1008    1.1154 H     111  UNL111      0.2090
    667 O           3.7813   15.2145    4.7234 O.3   112  UNL112     -0.3982
    668 C           2.3655   15.2145    4.7234 C.3   112  UNL112      0.0330
    669 H           2.0002   16.2073    4.4493 H     112  UNL112      0.0521
    670 H           2.0003   14.9415    5.7165 H     112  UNL112      0.0521
    671 H           2.0102   14.4835    3.9934 H     112  UNL112      0.0521
    672 H           4.0670   15.8721    5.3803 H     112  UNL112      0.2090
    673 O           1.7813   15.1857    7.6261 O.3   113  UNL113     -0.3982
    674 C           0.3655   15.1857    7.6261 C.3   113  UNL113      0.0330
    675 H           0.0002   15.2451    6.5978 H     113  UNL113      0.0521
    676 H           0.0003   16.0383    8.2036 H     113  UNL113      0.0521
    677 H           0.0102   14.2594    8.0837 H     113  UNL113      0.0521
    678 H           2.0670   16.0190    7.2144 H     113  UNL113      0.2090
    679 O           1.9932   16.0058   10.7454 O.3   114  UNL114     -0.3982
    680 C           2.7649   15.0516   10.0393 C.3   114  UNL114      0.0330
    681 H           3.1927   14.3342   10.7440 H     114  UNL114      0.0521
    682 H           3.5619   15.5599    9.4913 H     114  UNL114      0.0521
    683 H           2.1190   14.5246    9.3332 H     114  UNL114      0.0521
    684 H           2.5928   16.4571   11.3637 H     114  UNL114      0.2090
    685 O           3.7813   15.4665   13.0625 O.3   115  UNL115     -0.3982
    686 C           2.3655   15.4665   13.0625 C.3   115  UNL115      0.0330
    687 H           2.0002   14.6975   13.7477 H     115  UNL115      0.0521
    688 H           2.0003   15.2718   12.0512 H     115  UNL115      0.0521
    689 H           2.0102   16.4451   13.3937 H     115  UNL115      0.0521
    690 H           4.0670   14.5861   12.7645 H     115  UNL115      0.2090
    691 O           1.7474   15.6067   16.1742 O.3   116  UNL116     -0.3982
    692 C           3.0039   15.4245   15.5477 C.3   116  UNL116      0.0330
    693 H           2.9176   14.6600   14.7715 H     116  UNL116      0.0521
    694 H           3.7429   15.1206   16.2929 H     116  UNL116      0.0521
    695 H           3.3146   16.3683   15.0934 H     116  UNL116      0.0521
    696 H           1.4980   14.7532   16.5678 H     116  UNL116      0.2090
    697 O           1.7857   15.2145   19.0420 O.3   117  UNL117     -0.3982
    698 C           3.0553   15.2145   18.4155 C.3   117  UNL117      0.0330
    699 H           3.5042   16.2073   18.4997 H     117  UNL117      0.0521
    700 H           2.9434   14.9415   17.3633 H     117  UNL117      0.0521
    701 H           3.6970   14.4835   18.9129 H     117  UNL117      0.0521
    702 H           1.2388   15.8721   18.5794 H     117  UNL117      0.2090
    703 O           3.7813   15.1763   22.2399 O.3   118  UNL118     -0.3982
    704 C           2.3655   15.1763   22.2399 C.3   118  UNL118      0.0330
    705 H           2.0002   15.4076   21.2363 H     118  UNL118      0.0521
    706 H           2.0003   15.9198   22.9525 H     118  UNL118      0.0521
    707 H           2.0102   14.1863   22.5354 H     118  UNL118      0.0521
    708 H           4.0670   16.0669   21.9741 H     118  UNL118      0.2090
    709 O           1.9813   18.0126   -0.6040 O.3   119  UNL119     -0.3982
    710 C           0.5655   18.0126   -0.6040 C.3   119  UNL119      0.0330
    711 H           0.2002   18.3989   -1.5587 H     119  UNL119      0.0521
    712 H           0.2003   18.6347    0.2167 H     119  UNL119      0.0521
    713 H           0.2102   16.9884   -0.4679 H     119  UNL119      0.0521
    714 H           2.2670   18.9339   -0.7263 H     119  UNL119      0.2090
    715 O           3.1855   17.4537    2.8785 O.3   120  UNL120     -0.3982
    716 C           2.6644   18.4217    1.9863 C.3   120  UNL120      0.0330
    717 H           2.4284   17.9479    1.0303 H     120  UNL120      0.0521
    718 H           3.3999   19.2165    1.8395 H     120  UNL120      0.0521
    719 H           1.7535   18.8460    2.4149 H     120  UNL120      0.0521
    720 H           3.9926   17.0953    2.4715 H     120  UNL120      0.2090
    721 O           1.6904   17.7834    4.7234 O.3   121  UNL121     -0.3982
    722 C           2.9600   18.4100    4.7234 C.3   121  UNL121      0.0330
    723 H           3.7269   17.6813    4.4493 H     121  UNL121      0.0521
    724 H           3.1667   18.8163    5.7165 H     121  UNL121      0.0521
    725 H           2.9551   19.2227    3.9934 H     121  UNL121      0.0521
    726 H           1.7252   17.0673    5.3803 H     121  UNL121      0.2090
    727 O           1.9813   18.3078    7.6074 O.3   122  UNL122     -0.3982
    728 C           0.5655   18.3078    7.6074 C.3   122  UNL122      0.0330
    729 H           0.2002   17.5388    8.2926 H     122  UNL122      0.0521
    730 H           0.2003   18.1131    6.5961 H     122  UNL122      0.0521
    731 H           0.2102   19.2864    7.9386 H     122  UNL122      0.0521
    732 H           2.2670   17.4274    7.3094 H     122  UNL122      0.2090
    733 O           1.9813   18.3078   10.3350 O.3   123  UNL123     -0.3982
    734 C           0.5655   18.3078   10.3350 C.3   123  UNL123      0.0330
    735 H           0.2002   17.5388   11.0202 H     123  UNL123      0.0521
    736 H           0.2003   18.1131    9.3237 H     123  UNL123      0.0521
    737 H           0.2102   19.2864   10.6662 H     123  UNL123      0.0521
    738 H           2.2670   17.4274   10.0370 H     123  UNL123      0.2090
    739 O           2.3813   18.2668   12.9018 O.3   124  UNL124     -0.3982
    740 C           0.9655   18.2668   12.9018 C.3   124  UNL124      0.0330
    741 H           0.6002   18.5800   13.8830 H     124  UNL124      0.0521
    742 H           0.6003   17.2637   12.6684 H     124  UNL124      0.0521
    743 H           0.6102   18.9673   12.1424 H     124  UNL124      0.0521
    744 H           2.6670   17.6365   13.5849 H     124  UNL124      0.2090
    745 O           3.7813   18.0558   15.6336 O.3   125  UNL125     -0.3982
    746 C           2.3655   18.0558   15.6336 C.3   125  UNL125      0.0330
    747 H           2.0002   19.0486   15.3595 H     125  UNL125      0.0521
    748 H           2.0003   17.7828   16.6267 H     125  UNL125      0.0521
    749 H           2.0102   17.3248   14.9036 H     125  UNL125      0.0521
    750 H           4.0670   18.7134   16.2905 H     125  UNL125      0.2090
    751 O           1.7813   18.3078   18.5176 O.3   126  UNL126     -0.3982
    752 C           0.3655   18.3078   18.5176 C.3   126  UNL126      0.0330
    753 H           0.0002   17.5388   19.2028 H     126  UNL126      0.0521
    754 H           0.0003   18.1131   17.5063 H     126  UNL126      0.0521
    755 H           0.0102   19.2864   18.8488 H     126  UNL126      0.0521
    756 H           2.0670   17.4274   18.2196 H     126  UNL126      0.2090
    757 O           1.7813   18.3078   22.2452 O.3   127  UNL127     -0.3982
    758 C           0.3655   18.3078   22.2452 C.3   127  UNL127      0.0330
    759 H           0.0002   17.5388   22.9304 H     127  UNL127      0.0521
    760 H           0.0003   18.1131   21.2339 H     127  UNL127      0.0521
    761 H           0.0102   19.2864   22.5764 H     127  UNL127      0.0521
    762 H           2.0670   17.4274   21.9472 H     127  UNL127      0.2090
    763 O          -0.5373   21.2684   -0.7961 O.3   128  UNL128     -0.3982
    764 C           0.8106   20.8377   -0.7503 C.3   128  UNL128      0.0330
    765 H           0.9536   20.1756    0.1073 H     128  UNL128      0.0521
    766 H           1.4688   21.7059   -0.6676 H     128  UNL128      0.0521
    767 H           1.0414   20.2945   -1.6697 H     128  UNL128      0.0521
    768 H          -0.7127   21.7468    0.0321 H     128  UNL128      0.2090
    769 O           1.7813   20.8971    1.9959 O.3   129  UNL129     -0.3982
    770 C           0.3655   20.8971    1.9959 C.3   129  UNL129      0.0330
    771 H           0.0002   21.8899    1.7217 H     129  UNL129      0.0521
    772 H           0.0003   20.6241    2.9889 H     129  UNL129      0.0521
    773 H           0.0102   20.1661    1.2658 H     129  UNL129      0.0521
    774 H           2.0670   21.5547    2.6527 H     129  UNL129      0.2090
    775 O           3.7813   21.1491    4.8799 O.3   130  UNL130     -0.3982
    776 C           2.3655   21.1491    4.8799 C.3   130  UNL130      0.0330
    777 H           2.0002   20.3801    5.5651 H     130  UNL130      0.0521
    778 H           2.0003   20.9544    3.8686 H     130  UNL130      0.0521
    779 H           2.0102   22.1277    5.2111 H     130  UNL130      0.0521
    780 H           4.0670   20.2687    4.5819 H     130  UNL130      0.2090
    781 O           1.4754   20.5226    6.9619 O.3   131  UNL131     -0.3982
    782 C           0.4110   21.2325    7.5681 C.3   131  UNL131      0.0330
    783 H           0.8104   21.9181    8.3197 H     131  UNL131      0.0521
    784 H          -0.2802   20.5263    8.0344 H     131  UNL131      0.0521
    785 H          -0.1174   21.8037    6.8012 H     131  UNL131      0.0521
    786 H           1.9253   20.0257    7.6663 H     131  UNL131      0.2090
    787 O           3.0713   21.9540   10.6343 O.3   132  UNL132     -0.3982
    788 C           2.2465   20.9376   10.0949 C.3   132  UNL132      0.0330
    789 H           2.8707   20.1489    9.6676 H     132  UNL132      0.0521
    790 H           1.5997   21.3631    9.3237 H     132  UNL132      0.0521
    791 H           1.6301   20.5189   10.8939 H     132  UNL132      0.0521
    792 H           3.6060   22.3064    9.9025 H     132  UNL132      0.2090
    793 O           1.7813   21.1491   13.0625 O.3   133  UNL133     -0.3982
    794 C           0.3655   21.1491   13.0625 C.3   133  UNL133      0.0330
    795 H           0.0002   20.3801   13.7477 H     133  UNL133      0.0521
    796 H           0.0003   20.9544   12.0512 H     133  UNL133      0.0521
    797 H           0.0102   22.1277   13.3937 H     133  UNL133      0.0521
    798 H           2.0670   20.2687   12.7645 H     133  UNL133      0.2090
    799 O           2.3813   21.1491   15.7901 O.3   134  UNL134     -0.3982
    800 C           0.9655   21.1491   15.7901 C.3   134  UNL134      0.0330
    801 H           0.6002   20.3801   16.4753 H     134  UNL134      0.0521
    802 H           0.6003   20.9544   14.7788 H     134  UNL134      0.0521
    803 H           0.6102   22.1277   16.1213 H     134  UNL134      0.0521
    804 H           2.6670   20.2687   15.4921 H     134  UNL134      0.2090
    805 O           3.3913   20.9144   19.2353 O.3   135  UNL135     -0.3982
    806 C           2.6113   20.8826   18.0542 C.3   135  UNL135      0.0330
    807 H           2.3548   19.8479   17.8135 H     135  UNL135      0.0521
    808 H           3.1750   21.3302   17.2321 H     135  UNL135      0.0521
    809 H           1.6948   21.4542   18.2182 H     135  UNL135      0.0521
    810 H           4.1972   20.3995   19.0594 H     135  UNL135      0.2090
    811 O           2.1603   21.7081   20.5692 O.3   136  UNL136     -0.3982
    812 C           2.9651   20.9516   21.4549 C.3   136  UNL136      0.0330
    813 H           3.5604   20.2339   20.8850 H     136  UNL136      0.0521
    814 H           2.3270   20.4259   22.1694 H     136  UNL136      0.0521
    815 H           3.6321   21.6280   21.9945 H     136  UNL136      0.0521
    816 H           1.5795   21.0814   20.1051 H     136  UNL136      0.2090
    817 O           3.2307   23.9558    0.3216 O.3   137  UNL137     -0.3982
    818 C           2.4027   23.9239   -0.8264 C.3   137  UNL137      0.0330
    819 H           2.1366   22.8892   -1.0563 H     137  UNL137      0.0521
    820 H           2.9321   24.3715   -1.6710 H     137  UNL137      0.0521
    821 H           1.4937   24.4955   -0.6248 H     137  UNL137      0.0521
    822 H           4.0286   23.4408    0.1127 H     137  UNL137      0.2090
    823 O           3.3491   24.4030    2.3028 O.3   138  UNL138     -0.3982
    824 C           2.2105   23.8411    1.6762 C.3   138  UNL138      0.0330
    825 H           1.4703   23.5748    2.4348 H     138  UNL138      0.0521
    826 H           2.5052   22.9531    1.1118 H     138  UNL138      0.0521
    827 H           1.7807   24.5780    0.9937 H     138  UNL138      0.0521
    828 H           3.7085   23.7266    2.9018 H     138  UNL138      0.2090
    829 O           3.7813   23.7384    4.7234 O.3   139  UNL139     -0.3982
    830 C           2.3655   23.7384    4.7234 C.3   139  UNL139      0.0330
    831 H           2.0002   24.7312    4.4493 H     139  UNL139      0.0521
    832 H           2.0003   23.4654    5.7165 H     139  UNL139      0.0521
    833 H           2.0102   23.0074    3.9934 H     139  UNL139      0.0521
    834 H           4.0670   24.3960    5.3803 H     139  UNL139      0.2090
    835 O           1.9813   23.9904    7.6074 O.3   140  UNL140     -0.3982
    836 C           0.5655   23.9904    7.6074 C.3   140  UNL140      0.0330
    837 H           0.2002   23.2214    8.2926 H     140  UNL140      0.0521
    838 H           0.2003   23.7957    6.5961 H     140  UNL140      0.0521
    839 H           0.2102   24.9690    7.9386 H     140  UNL140      0.0521
    840 H           2.2670   23.1100    7.3094 H     140  UNL140      0.2090
    841 O           1.6817   23.9904   11.0332 O.3   141  UNL141     -0.3982
    842 C           0.6173   23.9904   10.0996 C.3   141  UNL141      0.0330
    843 H          -0.1091   23.2214   10.3739 H     141  UNL141      0.0521
    844 H           1.0096   23.7957    9.0985 H     141  UNL141      0.0521
    845 H           0.1318   24.9690   10.1143 H     141  UNL141      0.0521
    846 H           2.0930   23.1100   10.9975 H     141  UNL141      0.2090
    847 O           3.1902   24.1634   13.9338 O.3   142  UNL142     -0.3982
    848 C           2.3989   23.8503   12.8023 C.3   142  UNL142      0.0330
    849 H           2.2872   22.7661   12.7232 H     142  UNL142      0.0521
    850 H           2.8767   24.2447   11.9022 H     142  UNL142      0.0521
    851 H           1.4140   24.3083   12.9198 H     142  UNL142      0.0521
    852 H           4.0573   23.7439   13.8010 H     142  UNL142      0.2090
    853 O           3.5813   23.6946   15.5257 O.3   143  UNL143     -0.3982
    854 C           2.1655   23.6946   15.5257 C.3   143  UNL143      0.0330
    855 H           1.8002   24.2925   14.6870 H     143  UNL143      0.0521
    856 H           1.8003   24.1088   16.4686 H     143  UNL143      0.0521
    857 H           1.8102   22.6669   15.4198 H     143  UNL143      0.0521
    858 H           3.8670   24.6192   15.6210 H     143  UNL143      0.2090
    859 O           3.4993   23.1454   18.7141 O.3   144  UNL144     -0.3982
    860 C           2.5797   24.1134   18.2431 C.3   144  UNL144      0.0330
    861 H           2.4078   24.8624   19.0200 H     144  UNL144      0.0521
    862 H           1.6388   23.6248   17.9785 H     144  UNL144      0.0521
    863 H           2.9971   24.5989   17.3579 H     144  UNL144      0.0521
    864 H           3.1017   22.7318   19.4992 H     144  UNL144      0.2090
    865 O           3.5709   23.8146   20.7397 O.3   145  UNL145     -0.3982
    866 C           2.5065   23.6806   21.6635 C.3   145  UNL145      0.0330
    867 H           1.5552   23.6689   21.1257 H     145  UNL145      0.0521
    868 H           2.5281   24.5147   22.3691 H     145  UNL145      0.0521
    869 H           2.6256   22.7416   22.2091 H     145  UNL145      0.0521
    870 H           3.4382   24.6562   20.2710 H     145  UNL145      0.2090
    871 O           1.9813   26.8317   -0.5752 O.3   146  UNL146     -0.3982
    872 C           0.5655   26.8317   -0.5752 C.3   146  UNL146      0.0330
    873 H           0.2002   26.0627    0.1100 H     146  UNL146      0.0521
    874 H           0.2003   26.6370   -1.5865 H     146  UNL146      0.0521
    875 H           0.2102   27.8103   -0.2440 H     146  UNL146      0.0521
    876 H           2.2670   25.9513   -0.8732 H     146  UNL146      0.2090
    877 O           1.7813   26.8317    2.1523 O.3   147  UNL147     -0.3982
    878 C           0.3655   26.8317    2.1523 C.3   147  UNL147      0.0330
    879 H           0.0002   26.0627    2.8375 H     147  UNL147      0.0521
    880 H           0.0003   26.6370    1.1410 H     147  UNL147      0.0521
    881 H           0.0102   27.8103    2.4835 H     147  UNL147      0.0521
    882 H           2.0670   25.9513    1.8543 H     147  UNL147      0.2090
    883 O           1.8975   26.8317    5.8350 O.3   148  UNL148     -0.3982
    884 C           1.3218   26.8317    4.5416 C.3   148  UNL148      0.0330
    885 H           0.5472   26.0627    4.4865 H     148  UNL148      0.0521
    886 H           2.0972   26.6370    3.7967 H     148  UNL148      0.0521
    887 H           0.8747   27.8103    4.3517 H     148  UNL148      0.0521
    888 H           2.2860   25.9513    5.9749 H     148  UNL148      0.2090
    889 O           1.7813   26.8317    7.6074 O.3   149  UNL149     -0.3982
    890 C           0.3655   26.8317    7.6074 C.3   149  UNL149      0.0330
    891 H           0.0002   26.0627    8.2926 H     149  UNL149      0.0521
    892 H           0.0003   26.6370    6.5961 H     149  UNL149      0.0521
    893 H           0.0102   27.8103    7.9386 H     149  UNL149      0.0521
    894 H           2.0670   25.9513    7.3094 H     149  UNL149      0.2090
    895 O           1.5813   26.8317   10.3350 O.3   150  UNL150     -0.3982
    896 C           0.1655   26.8317   10.3350 C.3   150  UNL150      0.0330
    897 H          -0.1998   26.0627   11.0202 H     150  UNL150      0.0521
    898 H          -0.1997   26.6370    9.3237 H     150  UNL150      0.0521
    899 H          -0.1898   27.8103   10.6662 H     150  UNL150      0.0521
    900 H           1.8670   25.9513   10.0370 H     150  UNL150      0.2090
    901 O           1.6285   26.1534   12.4025 O.3   151  UNL151     -0.3982
    902 C           0.8283   26.8553   13.3361 C.3   151  UNL151      0.0330
    903 H          -0.0533   26.2585   13.5830 H     151  UNL151      0.0521
    904 H           0.5245   27.8140   12.9088 H     151  UNL151      0.0521
    905 H           1.4119   27.0315   14.2427 H     151  UNL151      0.0521
    906 H           1.0843   26.0117   11.6092 H     151  UNL151      0.2090
    907 O           1.7427   26.3674   15.7901 O.3   152  UNL152     -0.3982
    908 C           0.4570   26.9602   15.7901 C.3   152  UNL152      0.0330
    909 H          -0.1967   26.4148   16.4753 H     152  UNL152      0.0521
    910 H           0.0438   26.9363   14.7788 H     152  UNL152      0.0521
    911 H           0.5440   27.9976   16.1213 H     152  UNL152      0.0521
    912 H           1.6335   25.4483   15.4921 H     152  UNL152      0.2090
    913 O           1.0091   26.2725   17.4686 O.3   153  UNL153     -0.3982
    914 C           0.7320   26.9292   18.6919 C.3   153  UNL153      0.0330
    915 H           1.6340   27.4328   19.0486 H     153  UNL153      0.0521
    916 H           0.3938   26.1983   19.4304 H     153  UNL153      0.0521
    917 H          -0.0550   27.6690   18.5277 H     153  UNL153      0.0521
    918 H           1.7105   25.6227   17.6457 H     153  UNL153      0.2090
    919 O           1.7813   26.8317   22.0452 O.3   154  UNL154     -0.3982
    920 C           0.3655   26.8317   22.0452 C.3   154  UNL154      0.0330
    921 H           0.0002   26.0627   22.7304 H     154  UNL154      0.0521
    922 H           0.0003   26.6370   21.0339 H     154  UNL154      0.0521
    923 H           0.0102   27.8103   22.3764 H     154  UNL154      0.0521
    924 H           2.0670   25.9513   21.7472 H     154  UNL154      0.2090
    925 O           3.4945   29.8215   -0.2821 O.3   155  UNL155     -0.3982
    926 C           2.2151   29.2983   -0.5887 C.3   155  UNL155      0.0330
    927 H           2.1985   28.9592   -1.6275 H     155  UNL155      0.0521
    928 H           1.4580   30.0708   -0.4342 H     155  UNL155      0.0521
    929 H           2.0096   28.4525    0.0717 H     155  UNL155      0.0521
    930 H           3.6487   30.5699   -0.8836 H     155  UNL155      0.2090
    931 O           1.6825   29.1559    2.1367 O.3   156  UNL156     -0.3982
    932 C           2.9522   29.7759    2.2266 C.3   156  UNL156      0.0330
    933 H           3.2405   30.1619    1.2457 H     156  UNL156      0.0521
    934 H           3.6898   29.0489    2.5751 H     156  UNL156      0.0521
    935 H           2.8942   30.6027    2.9384 H     156  UNL156      0.0521
    936 H           1.7652   28.4269    1.4985 H     156  UNL156      0.2090
    937 O           1.6791   29.3889    4.1357 O.3   157  UNL157     -0.3982
    938 C           2.6337   29.6996    5.1341 C.3   157  UNL157      0.0330
    939 H           3.5270   30.1212    4.6668 H     157  UNL157      0.0521
    940 H           2.8920   28.7932    5.6870 H     157  UNL157      0.0521
    941 H           2.2038   30.4325    5.8208 H     157  UNL157      0.0521
    942 H           2.0887   28.7369    3.5418 H     157  UNL157      0.2090
    943 O           1.8223   29.4246    7.6082 O.3   158  UNL158     -0.3982
    944 C           3.1952   29.7364    7.4590 C.3   158  UNL158      0.0330
    945 H           3.6740   28.9844    6.8269 H     158  UNL158      0.0521
    946 H           3.6732   29.7600    8.4413 H     158  UNL158      0.0521
    947 H           3.2875   30.7177    6.9876 H     158  UNL158      0.0521
    948 H           1.7721   28.5492    8.0287 H     158  UNL158      0.2090
    949 O           1.7877   28.8445   10.5359 O.3   159  UNL159     -0.3982
    950 C           2.8159   29.5721    9.8894 C.3   159  UNL159      0.0330
    951 H           3.3392   30.1932   10.6206 H     159  UNL159      0.0521
    952 H           2.3827   30.1991    9.1063 H     159  UNL159      0.0521
    953 H           3.5211   28.8684    9.4410 H     159  UNL159      0.0521
    954 H           1.1778   29.4951   10.9237 H     159  UNL159      0.2090
    955 O           2.3462   28.8553   13.1579 O.3   160  UNL160     -0.3982
    956 C           1.2818   29.7888   13.1579 C.3   160  UNL160      0.0330
    957 H           0.3401   29.2691   12.9644 H     160  UNL160      0.0521
    958 H           1.4584   30.5440   12.3881 H     160  UNL160      0.0521
    959 H           1.2339   30.2730   14.1361 H     160  UNL160      0.0521
    960 H           2.3638   28.4420   12.2779 H     160  UNL160      0.2090
    961 O           1.8218   29.0929   15.2773 O.3   161  UNL161     -0.3982
    962 C           2.8461   29.7959   15.9563 C.3   161  UNL161      0.0330
    963 H           3.5798   30.1609   15.2333 H     161  UNL161      0.0521
    964 H           3.3286   29.1318   16.6775 H     161  UNL161      0.0521
    965 H           2.4048   30.6445   16.4843 H     161  UNL161      0.0521
    966 H           2.2433   28.3463   14.8187 H     161  UNL161      0.2090
    967 O           2.1908   28.6232   17.7535 O.3   162  UNL162     -0.3982
    968 C           2.7647   29.7888   18.3161 C.3   162  UNL162      0.0330
    969 H           2.8794   29.6555   19.3947 H     162  UNL162      0.0521
    970 H           2.1217   30.6481   18.1107 H     162  UNL162      0.0521
    971 H           3.7460   29.9548   17.8653 H     162  UNL162      0.0521
    972 H           1.3218   28.5019   18.1725 H     162  UNL162      0.2090
    973 O           1.6643   29.2086   21.1992 O.3   163  UNL163     -0.3982
    974 C           3.0481   29.4771   21.0666 C.3   163  UNL163      0.0330
    975 H           3.5345   29.3771   22.0402 H     163  UNL163      0.0521
    976 H           3.1883   30.4893   20.6796 H     163  UNL163      0.0521
    977 H           3.4841   28.7588   20.3684 H     163  UNL163      0.0521
    978 H           1.3052   29.8613   21.8241 H     163  UNL163      0.2090
    979 O           3.5451   33.0448   -0.7688 O.3   164  UNL164     -0.3982
    980 C           2.4806   32.1113   -0.7688 C.3   164  UNL164      0.0330
    981 H           1.5406   32.6291   -0.5628 H     164  UNL164      0.0521
    982 H           2.6635   31.3489   -0.0076 H     164  UNL164      0.0521
    983 H           2.4247   31.6362   -1.7510 H     164  UNL164      0.0521
    984 H           3.5699   33.4498    0.1149 H     164  UNL164      0.2090
    985 O           1.6509   32.3143    2.3349 O.3   165  UNL165     -0.3982
    986 C           3.0185   32.3143    1.9688 C.3   165  UNL165      0.0330
    987 H           3.1942   31.5453    1.2124 H     165  UNL165      0.0521
    988 H           3.6328   32.1196    2.8512 H     165  UNL165      0.0521
    989 H           3.2761   33.2929    1.5570 H     165  UNL165      0.0521
    990 H           1.4520   31.4339    2.6967 H     165  UNL165      0.2090
    991 O           3.7813   32.4393    4.6954 O.3   166  UNL166     -0.3982
    992 C           2.3655   32.4393    4.6954 C.3   166  UNL166      0.0330
    993 H           2.0002   33.0056    5.5557 H     166  UNL166      0.0521
    994 H           2.0003   31.4104    4.7413 H     166  UNL166      0.0521
    995 H           2.0102   32.9090    3.7753 H     166  UNL166      0.0521
    996 H           4.0670   32.0166    5.5232 H     166  UNL166      0.2090
    997 O           1.8067   32.0968    7.0161 O.3   167  UNL167     -0.3982
    998 C           0.7422   32.5949    7.8057 C.3   167  UNL167      0.0330
    999 H           0.3843   31.8082    8.4745 H     167  UNL167      0.0521
   1000 H          -0.0685   32.9317    7.1551 H     167  UNL167      0.0521
   1001 H           1.1043   33.4378    8.3991 H     167  UNL167      0.0521
   1002 H           1.4554   31.3505    6.5012 H     167  UNL167      0.2090
   1003 O           1.7172   32.0362    9.9728 O.3   168  UNL168     -0.3982
   1004 C           2.9868   32.6051   10.2351 C.3   168  UNL168      0.0330
   1005 H           3.7610   31.8439   10.1110 H     168  UNL168      0.0521
   1006 H           3.0073   32.9981   11.2545 H     168  UNL168      0.0521
   1007 H           3.1637   33.4200    9.5292 H     168  UNL168      0.0521
   1008 H           1.5885   31.3167   10.6142 H     168  UNL168      0.2090
   1009 O           2.7806   33.4283   13.2539 O.3   169  UNL169     -0.3982
   1010 C           2.5555   32.1070   12.7978 C.3   169  UNL169      0.0330
   1011 H           2.1272   31.5095   13.6063 H     169  UNL169      0.0521
   1012 H           3.5005   31.6688   12.4676 H     169  UNL169      0.0521
   1013 H           1.8566   32.1351   11.9586 H     169  UNL169      0.0521
   1014 H           3.4041   33.3714   13.9980 H     169  UNL169      0.2090
   1015 O           1.7597   32.3143   15.2208 O.3   170  UNL170     -0.3982
   1016 C           3.0293   32.3143   15.8473 C.3   170  UNL170      0.0330
   1017 H           3.6601   31.5453   15.3945 H     170  UNL170      0.0521
   1018 H           2.9093   32.1196   16.9158 H     170  UNL170      0.0521
   1019 H           3.4945   33.2929   15.7075 H     170  UNL170      0.0521
   1020 H           1.3716   31.4339   15.3616 H     170  UNL170      0.2090
   1021 O           1.8656   32.7766   17.9074 O.3   171  UNL171     -0.3982
   1022 C           2.8201   32.1519   18.7459 C.3   171  UNL171      0.0330
   1023 H           3.4009   32.9149   19.2701 H     171  UNL171      0.0521
   1024 H           3.4817   31.5255   18.1427 H     171  UNL171      0.0521
   1025 H           2.2980   31.5290   19.4761 H     171  UNL171      0.0521
   1026 H           2.3581   33.3220   17.2707 H     171  UNL171      0.2090
   1027 O           3.7813   32.2199   21.4223 O.3   172  UNL172     -0.3982
   1028 C           2.3655   32.2199   21.4223 C.3   172  UNL172      0.0330
   1029 H           2.0002   32.5690   20.4532 H     172  UNL172      0.0521
   1030 H           2.0003   32.8734   22.2182 H     172  UNL172      0.0521
   1031 H           2.0102   31.2019   21.5979 H     172  UNL172      0.0521
   1032 H           4.0670   33.1359   21.2642 H     172  UNL172      0.2090
   1033 O           3.1185   35.2372   -1.0586 O.3   173  UNL173     -0.3982
   1034 C           2.9814   36.5743   -0.6135 C.3   173  UNL173      0.0330
   1035 H           3.1906   36.6259    0.4579 H     173  UNL173      0.0521
   1036 H           1.9658   36.9238   -0.8145 H     173  UNL173      0.0521
   1037 H           3.6941   37.2030   -1.1524 H     173  UNL173      0.0521
   1038 H           2.4740   34.7037   -0.5631 H     173  UNL173      0.2090
   1039 O           3.7813   35.2013    1.9516 O.3   174  UNL174     -0.3982
   1040 C           2.3655   35.2013    1.9516 C.3   174  UNL174      0.0330
   1041 H           2.0002   36.1284    2.4001 H     174  UNL174      0.0521
   1042 H           2.0003   34.3413    2.5182 H     174  UNL174      0.0521
   1043 H           2.0102   35.1331    0.9207 H     174  UNL174      0.0521
   1044 H           4.0670   35.2626    2.8790 H     174  UNL174      0.2090
   1045 O           2.0331   37.4117    5.1356 O.3   175  UNL175     -0.3982
   1046 C           2.9432   36.4811    4.5787 C.3   175  UNL175      0.0330
   1047 H           2.4320   35.5318    4.4007 H     175  UNL175      0.0521
   1048 H           3.7803   36.3332    5.2654 H     175  UNL175      0.0521
   1049 H           3.3177   36.8742    3.6306 H     175  UNL175      0.0521
   1050 H           1.7181   37.0358    5.9753 H     175  UNL175      0.2090
   1051 O           2.4544   34.4117    6.8644 O.3   176  UNL176     -0.3982
   1052 C           2.8661   35.3111    7.8774 C.3   176  UNL176      0.0330
   1053 H           1.9889   35.7915    8.3179 H     176  UNL176      0.0521
   1054 H           3.5308   36.0649    7.4484 H     176  UNL176      0.0521
   1055 H           3.4009   34.7547    8.6506 H     176  UNL176      0.0521
   1056 H           1.9832   34.9339    6.1930 H     176  UNL176      0.2090
   1057 O           3.7813   35.1036   10.1785 O.3   177  UNL177     -0.3982
   1058 C           2.3655   35.1036   10.1785 C.3   177  UNL177      0.0330
   1059 H           2.0002   36.0964    9.9044 H     177  UNL177      0.0521
   1060 H           2.0003   34.8306   11.1716 H     177  UNL177      0.0521
   1061 H           2.0102   34.3726    9.4485 H     177  UNL177      0.0521
   1062 H           4.0670   35.7612   10.8354 H     177  UNL177      0.2090
   1063 O           2.3474   37.3084   13.9133 O.3   178  UNL178     -0.3982
   1064 C           2.6223   36.6653   12.6823 C.3   178  UNL178      0.0330
   1065 H           3.0474   35.6769   12.8735 H     178  UNL178      0.0521
   1066 H           3.3245   37.2699   12.1032 H     178  UNL178      0.0521
   1067 H           1.6905   36.5567   12.1223 H     178  UNL178      0.0521
   1068 H           3.1923   37.3907   14.3876 H     178  UNL178      0.2090
   1069 O           1.9936   34.6053   15.1831 O.3   179  UNL179     -0.3982
   1070 C           2.9481   35.2318   16.0203 C.3   179  UNL179      0.0330
   1071 H           2.4868   36.0830   16.5270 H     179  UNL179      0.0521
   1072 H           3.7964   35.5680   15.4191 H     179  UNL179      0.0521
   1073 H           3.2949   34.5114   16.7649 H     179  UNL179      0.0521
   1074 H           1.7046   35.2683   14.5332 H     179  UNL179      0.2090
   1075 O           3.7813   35.3556   18.5176 O.3   180  UNL180     -0.3982
   1076 C           2.3655   35.3556   18.5176 C.3   180  UNL180      0.0330
   1077 H           2.0002   34.5866   19.2028 H     180  UNL180      0.0521
   1078 H           2.0003   35.1609   17.5063 H     180  UNL180      0.0521
   1079 H           2.0102   36.3342   18.8488 H     180  UNL180      0.0521
   1080 H           4.0670   34.4752   18.2196 H     180  UNL180      0.2090
   1081 O           2.4443   35.1657   22.0455 O.3   181  UNL181     -0.3982
   1082 C           2.7588   36.5461   22.0455 C.3   181  UNL181      0.0330
   1083 H           3.7732   36.6896   22.4260 H     181  UNL181      0.0521
   1084 H           2.0435   37.0836   22.6727 H     181  UNL181      0.0521
   1085 H           2.6989   36.9241   21.0223 H     181  UNL181      0.0521
   1086 H           2.5057   34.8587   22.9661 H     181  UNL181      0.2090
   1087 O           4.8219    1.2751   -0.7095 O.3   182  UNL182     -0.3982
   1088 C           3.4321    1.1998   -0.4501 C.3   182  UNL182      0.0330
   1089 H           3.1673    0.1767   -0.1722 H     182  UNL182      0.0521
   1090 H           2.8773    1.5018   -1.3418 H     182  UNL182      0.0521
   1091 H           3.1875    1.8739    0.3742 H     182  UNL182      0.0521
   1092 H           5.0087    0.6669   -1.4448 H     182  UNL182      0.2090
   1093 O           5.4263    1.0080    1.9959 O.3   183  UNL183     -0.3982
   1094 C           4.0105    1.0080    1.9959 C.3   183  UNL183      0.0330
   1095 H           3.6452    2.0008    1.7217 H     183  UNL183      0.0521
   1096 H           3.6453    0.7350    2.9889 H     183  UNL183      0.0521
   1097 H           3.6552    0.2770    1.2658 H     183  UNL183      0.0521
   1098 H           5.7120    1.6656    2.6527 H     183  UNL183      0.2090
   1099 O           7.0263    1.2600    4.8799 O.3   184  UNL184     -0.3982
   1100 C           5.6105    1.2600    4.8799 C.3   184  UNL184      0.0330
   1101 H           5.2452    0.4910    5.5651 H     184  UNL184      0.0521
   1102 H           5.2453    1.0653    3.8686 H     184  UNL184      0.0521
   1103 H           5.2552    2.2386    5.2111 H     184  UNL184      0.0521
   1104 H           7.3120    0.3796    4.5819 H     184  UNL184      0.2090
   1105 O           5.0307    1.0080    8.1318 O.3   185  UNL185     -0.3982
   1106 C           6.3004    1.0080    7.5053 C.3   185  UNL185      0.0330
   1107 H           6.7493    2.0008    7.5895 H     185  UNL185      0.0521
   1108 H           6.1884    0.7350    6.4531 H     185  UNL185      0.0521
   1109 H           6.9421    0.2770    8.0027 H     185  UNL185      0.0521
   1110 H           4.4839    1.6656    7.6692 H     185  UNL185      0.2090
   1111 O           5.0263    0.9829   10.3607 O.3   186  UNL186     -0.3982
   1112 C           3.6105    0.9829   10.3607 C.3   186  UNL186      0.0330
   1113 H           3.2452    0.9884    9.3307 H     186  UNL186      0.0521
   1114 H           3.2453    1.8646   10.8928 H     186  UNL186      0.0521
   1115 H           3.2552    0.0819   10.8661 H     186  UNL186      0.0521
   1116 H           5.3120    1.7935    9.9059 H     186  UNL186      0.2090
   1117 O           4.7087    1.2374   12.2444 O.3   187  UNL187     -0.3982
   1118 C           3.6443    1.2497   13.1779 C.3   187  UNL187      0.0330
   1119 H           4.0488    1.2712   14.1929 H     187  UNL187      0.0521
   1120 H           3.0265    0.3591   13.0391 H     187  UNL187      0.0521
   1121 H           3.0361    2.1419   13.0114 H     187  UNL187      0.0521
   1122 H           5.2304    0.4350   12.4165 H     187  UNL187      0.2090
   1123 O           7.0305    1.1258   15.8603 O.3   188  UNL188     -0.3982
   1124 C           5.6238    0.9666   15.8400 C.3   188  UNL188      0.0330
   1125 H           5.3018    0.6920   14.8324 H     188  UNL188      0.0521
   1126 H           5.1460    1.9008   16.1449 H     188  UNL188      0.0521
   1127 H           5.3459    0.1732   16.5378 H     188  UNL188      0.0521
   1128 H           7.2467    1.8358   15.2321 H     188  UNL188      0.2090
   1129 O           4.9742    0.9648   18.9275 O.3   189  UNL189     -0.3982
   1130 C           6.2439    0.9648   18.3010 C.3   189  UNL189      0.0330
   1131 H           6.9940    1.3511   18.9955 H     189  UNL189      0.0521
   1132 H           6.2082    1.5869   17.4034 H     189  UNL189      0.0521
   1133 H           6.5023   -0.0594   18.0218 H     189  UNL189      0.0521
   1134 H           4.7722    1.8861   19.1637 H     189  UNL189      0.2090
   1135 O           4.8541    0.5139   22.2452 O.3   190  UNL190     -0.3982
   1136 C           3.7897    1.4474   22.2452 C.3   190  UNL190      0.0330
   1137 H           3.0080    1.1102   22.9304 H     190  UNL190      0.0521
   1138 H           3.3867    1.5418   21.2339 H     190  UNL190      0.0521
   1139 H           4.1678    2.4174   22.5764 H     190  UNL190      0.0521
   1140 H           4.4884   -0.3364   21.9472 H     190  UNL190      0.2090
   1141 O           6.8496    4.4934   -1.2121 O.3   191  UNL191     -0.3982
   1142 C           6.0840    3.4821   -0.5832 C.3   191  UNL191      0.0330
   1143 H           5.7858    2.7358   -1.3238 H     191  UNL191      0.0521
   1144 H           5.1990    3.9275   -0.1223 H     191  UNL191      0.0521
   1145 H           6.6922    3.0039    0.1882 H     191  UNL191      0.0521
   1146 H           6.2841    4.8993   -1.8910 H     191  UNL191      0.2090
   1147 O           6.5392    4.5348    3.0117 O.3   192  UNL192     -0.3982
   1148 C           5.6817    3.7052    2.2495 C.3   192  UNL192      0.0330
   1149 H           6.2798    3.0154    1.6489 H     192  UNL192      0.0521
   1150 H           5.0577    4.3238    1.5999 H     192  UNL192      0.0521
   1151 H           5.0436    3.1347    2.9284 H     192  UNL192      0.0521
   1152 H           7.0927    5.0282    2.3827 H     192  UNL192      0.2090
   1153 O           5.0047    4.1013    4.3106 O.3   193  UNL193     -0.3982
   1154 C           6.2744    4.1013    4.9371 C.3   193  UNL193      0.0330
   1155 H           6.9052    3.3323    4.4843 H     193  UNL193      0.0521
   1156 H           6.1543    3.9066    6.0056 H     193  UNL193      0.0521
   1157 H           6.7395    5.0799    4.7973 H     193  UNL193      0.0521
   1158 H           4.6166    3.2209    4.4514 H     193  UNL193      0.2090
   1159 O           4.9354    3.5769    7.4510 O.3   194  UNL194     -0.3982
   1160 C           6.2051    4.2035    7.4510 C.3   194  UNL194      0.0330
   1161 H           6.9720    3.4748    7.1768 H     194  UNL194      0.0521
   1162 H           6.4118    4.6098    8.4440 H     194  UNL194      0.0521
   1163 H           6.2002    5.0162    6.7209 H     194  UNL194      0.0521
   1164 H           4.9702    2.8608    8.1078 H     194  UNL194      0.2090
   1165 O           6.4116    3.3485   11.1490 O.3   195  UNL195     -0.3982
   1166 C           6.2642    4.1805   10.0129 C.3   195  UNL195      0.0330
   1167 H           5.6137    5.0234   10.2593 H     195  UNL195      0.0521
   1168 H           5.8345    3.6031    9.1907 H     195  UNL195      0.0521
   1169 H           7.2468    4.5556    9.7173 H     195  UNL195      0.0521
   1170 H           5.5240    3.0310   11.3877 H     195  UNL195      0.2090
   1171 O           5.7197    4.6076   12.0504 O.3   196  UNL196     -0.3982
   1172 C           5.8237    3.9829   13.3167 C.3   196  UNL196      0.0330
   1173 H           6.2230    4.6947   14.0435 H     196  UNL196      0.0521
   1174 H           6.4820    3.1139   13.2423 H     196  UNL196      0.0521
   1175 H           4.8304    3.6586   13.6355 H     196  UNL196      0.0521
   1176 H           6.6159    4.8844   11.7939 H     196  UNL196      0.2090
   1177 O           4.8877    3.9462   15.5030 O.3   197  UNL197     -0.3982
   1178 C           6.2380    4.1449   15.8794 C.3   197  UNL197      0.0330
   1179 H           6.8800    4.0504   15.0001 H     197  UNL197      0.0521
   1180 H           6.5203    3.4041   16.6313 H     197  UNL197      0.0521
   1181 H           6.3456    5.1473   16.3004 H     197  UNL197      0.0521
   1182 H           4.8232    3.0491   15.1333 H     197  UNL197      0.2090
   1183 O           7.0263    3.8349   18.3778 O.3   198  UNL198     -0.3982
   1184 C           5.6105    3.8349   18.3778 C.3   198  UNL198      0.0330
   1185 H           5.2452    4.7781   17.9640 H     198  UNL198      0.0521
   1186 H           5.2453    3.7073   19.3997 H     198  UNL198      0.0521
   1187 H           5.2552    3.0067   17.7602 H     198  UNL198      0.0521
   1188 H           7.3120    4.5800   18.9334 H     198  UNL198      0.2090
   1189 O           5.5655    2.9512   21.4387 O.3   199  UNL199     -0.3982
   1190 C           5.9934    4.2433   21.8285 C.3   199  UNL199      0.0330
   1191 H           5.5153    4.9935   21.1937 H     199  UNL199      0.0521
   1192 H           7.0801    4.3115   21.7362 H     199  UNL199      0.0521
   1193 H           5.7070    4.4135   22.8690 H     199  UNL199      0.0521
   1194 H           5.8335    2.8290   20.5120 H     199  UNL199      0.2090
   1195 O           7.0263    6.9426   -0.5752 O.3   200  UNL200     -0.3982
   1196 C           5.6105    6.9426   -0.5752 C.3   200  UNL200      0.0330
   1197 H           5.2452    6.1736    0.1100 H     200  UNL200      0.0521
   1198 H           5.2453    6.7479   -1.5865 H     200  UNL200      0.0521
   1199 H           5.2552    7.9212   -0.2440 H     200  UNL200      0.0521
   1200 H           7.3120    6.0622   -0.8732 H     200  UNL200      0.2090
   1201 O           7.0263    6.9016    1.9916 O.3   201  UNL201     -0.3982
   1202 C           5.6105    6.9016    1.9916 C.3   201  UNL201      0.0330
   1203 H           5.2452    7.2148    2.9728 H     201  UNL201      0.0521
   1204 H           5.2453    5.8985    1.7582 H     201  UNL201      0.0521
   1205 H           5.2552    7.6021    1.2322 H     201  UNL201      0.0521
   1206 H           7.3120    6.2713    2.6747 H     201  UNL201      0.2090
   1207 O           6.7722    6.6474    4.1358 O.3   202  UNL202     -0.3982
   1208 C           5.7078    6.6474    5.0694 C.3   202  UNL202      0.0330
   1209 H           4.8036    7.0337    4.5925 H     202  UNL202      0.0521
   1210 H           5.9744    7.2695    5.9272 H     202  UNL202      0.0521
   1211 H           5.5304    5.6232    5.4060 H     202  UNL202      0.0521
   1212 H           6.9063    7.5687    3.8555 H     202  UNL202      0.2090
   1213 O           5.2263    6.9113    7.4565 O.3   203  UNL203     -0.3982
   1214 C           3.8105    6.9113    7.4565 C.3   203  UNL203      0.0330
   1215 H           3.4452    7.1339    8.4622 H     203  UNL203      0.0521
   1216 H           3.4453    5.9337    7.1328 H     203  UNL203      0.0521
   1217 H           3.4552    7.6781    6.7641 H     203  UNL203      0.0521
   1218 H           5.5120    6.2215    8.0794 H     203  UNL203      0.2090
   1219 O           5.0263    6.6906   10.1785 O.3   204  UNL204     -0.3982
   1220 C           3.6105    6.6906   10.1785 C.3   204  UNL204      0.0330
   1221 H           3.2452    7.6834    9.9044 H     204  UNL204      0.0521
   1222 H           3.2453    6.4176   11.1716 H     204  UNL204      0.0521
   1223 H           3.2552    5.9596    9.4485 H     204  UNL204      0.0521
   1224 H           5.3120    7.3482   10.8354 H     204  UNL204      0.2090
   1225 O           7.0263    6.9426   13.0625 O.3   205  UNL205     -0.3982
   1226 C           5.6105    6.9426   13.0625 C.3   205  UNL205      0.0330
   1227 H           5.2452    6.1736   13.7477 H     205  UNL205      0.0521
   1228 H           5.2453    6.7479   12.0512 H     205  UNL205      0.0521
   1229 H           5.2552    7.9212   13.3937 H     205  UNL205      0.0521
   1230 H           7.3120    6.0622   12.7645 H     205  UNL205      0.2090
   1231 O           7.0263    6.6474   15.7613 O.3   206  UNL206     -0.3982
   1232 C           5.6105    6.6474   15.7613 C.3   206  UNL206      0.0330
   1233 H           5.2452    7.0337   14.8066 H     206  UNL206      0.0521
   1234 H           5.2453    7.2695   16.5821 H     206  UNL206      0.0521
   1235 H           5.2552    5.6232   15.8974 H     206  UNL206      0.0521
   1236 H           7.3120    7.5687   15.6390 H     206  UNL206      0.2090
   1237 O           5.0047    7.2499   18.1726 O.3   207  UNL207     -0.3982
   1238 C           6.2744    6.8368   18.6437 C.3   207  UNL207      0.0330
   1239 H           6.9052    6.5573   17.7962 H     207  UNL207      0.0521
   1240 H           6.1543    5.9859   19.3186 H     207  UNL207      0.0521
   1241 H           6.7395    7.6647   19.1838 H     207  UNL207      0.0521
   1242 H           4.6166    6.4952   17.6980 H     207  UNL207      0.2090
   1243 O           7.0263    6.7724   22.0463 O.3   208  UNL208     -0.3982
   1244 C           5.6105    6.7724   22.0463 C.3   208  UNL208      0.0330
   1245 H           5.2452    7.7415   22.3950 H     208  UNL208      0.0521
   1246 H           5.2453    5.9766   22.7001 H     208  UNL208      0.0521
   1247 H           5.2552    6.5963   21.0283 H     208  UNL208      0.0521
   1248 H           7.3120    6.9307   22.9622 H     208  UNL208      0.2090
   1249 O           5.0263    9.7839   -0.5752 O.3   209  UNL209     -0.3982
   1250 C           3.6105    9.7839   -0.5752 C.3   209  UNL209      0.0330
   1251 H           3.2452    9.0149    0.1100 H     209  UNL209      0.0521
   1252 H           3.2453    9.5892   -1.5865 H     209  UNL209      0.0521
   1253 H           3.2552   10.7625   -0.2440 H     209  UNL209      0.0521
   1254 H           5.3120    8.9035   -0.8732 H     209  UNL209      0.2090
   1255 O           5.0263    9.7276    2.2278 O.3   210  UNL210     -0.3982
   1256 C           3.6105    9.7276    2.2278 C.3   210  UNL210      0.0330
   1257 H           3.2452    8.7026    2.3297 H     210  UNL210      0.0521
   1258 H           3.2453   10.1649    1.2954 H     210  UNL210      0.0521
   1259 H           3.2552   10.3242    3.0713 H     210  UNL210      0.0521
   1260 H           5.3120    9.1908    1.4690 H     210  UNL210      0.2090
   1261 O           7.0263    9.5319    4.7234 O.3   211  UNL211     -0.3982
   1262 C           5.6105    9.5319    4.7234 C.3   211  UNL211      0.0330
   1263 H           5.2452   10.5247    4.4493 H     211  UNL211      0.0521
   1264 H           5.2453    9.2589    5.7165 H     211  UNL211      0.0521
   1265 H           5.2552    8.8009    3.9934 H     211  UNL211      0.0521
   1266 H           7.3120   10.1895    5.3803 H     211  UNL211      0.2090
   1267 O           5.6263    9.7839    7.6074 O.3   212  UNL212     -0.3982
   1268 C           4.2105    9.7839    7.6074 C.3   212  UNL212      0.0330
   1269 H           3.8452    9.0149    8.2926 H     212  UNL212      0.0521
   1270 H           3.8453    9.5892    6.5961 H     212  UNL212      0.0521
   1271 H           3.8552   10.7625    7.9386 H     212  UNL212      0.0521
   1272 H           5.9120    8.9035    7.3094 H     212  UNL212      0.2090
   1273 O           4.8263    9.7839   10.3350 O.3   213  UNL213     -0.3982
   1274 C           3.4105    9.7839   10.3350 C.3   213  UNL213      0.0330
   1275 H           3.0452    9.0149   11.0202 H     213  UNL213      0.0521
   1276 H           3.0453    9.5892    9.3237 H     213  UNL213      0.0521
   1277 H           3.0552   10.7625   10.6662 H     213  UNL213      0.0521
   1278 H           5.1120    8.9035   10.0370 H     213  UNL213      0.2090
   1279 O           5.0263    9.5319   12.9061 O.3   214  UNL214     -0.3982
   1280 C           3.6105    9.5319   12.9061 C.3   214  UNL214      0.0330
   1281 H           3.2452   10.5247   12.6319 H     214  UNL214      0.0521
   1282 H           3.2453    9.2589   13.8991 H     214  UNL214      0.0521
   1283 H           3.2552    8.8009   12.1760 H     214  UNL214      0.0521
   1284 H           5.3120   10.1895   13.5629 H     214  UNL214      0.2090
   1285 O           7.0263    9.5319   15.6336 O.3   215  UNL215     -0.3982
   1286 C           5.6105    9.5319   15.6336 C.3   215  UNL215      0.0330
   1287 H           5.2452   10.5247   15.3595 H     215  UNL215      0.0521
   1288 H           5.2453    9.2589   16.6267 H     215  UNL215      0.0521
   1289 H           5.2552    8.8009   14.9036 H     215  UNL215      0.0521
   1290 H           7.3120   10.1895   16.2905 H     215  UNL215      0.2090
   1291 O           5.0263    9.7839   18.5176 O.3   216  UNL216     -0.3982
   1292 C           3.6105    9.7839   18.5176 C.3   216  UNL216      0.0330
   1293 H           3.2452    9.0149   19.2028 H     216  UNL216      0.0521
   1294 H           3.2453    9.5892   17.5063 H     216  UNL216      0.0521
   1295 H           3.2552   10.7625   18.8488 H     216  UNL216      0.0521
   1296 H           5.3120    8.9035   18.2196 H     216  UNL216      0.2090
   1297 O           5.0263    9.7322   22.0754 O.3   217  UNL217     -0.3982
   1298 C           3.6105    9.7322   22.0754 C.3   217  UNL217      0.0330
   1299 H           3.2452   10.1339   23.0239 H     217  UNL217      0.0521
   1300 H           3.2453    8.7120   21.9348 H     217  UNL217      0.0521
   1301 H           3.2552   10.3603   21.2552 H     217  UNL217      0.0521
   1302 H           5.3120    9.1671   22.8134 H     217  UNL217      0.2090
   1303 O           6.5807   12.2455   -1.5946 O.3   218  UNL218     -0.3982
   1304 C           6.0652   12.3652   -0.2814 C.3   218  UNL218      0.0330
   1305 H           4.9994   12.6022   -0.3275 H     218  UNL218      0.0521
   1306 H           6.6020   13.1540    0.2512 H     218  UNL218      0.0521
   1307 H           6.2030   11.4163    0.2422 H     218  UNL218      0.0521
   1308 H           6.4444   13.1021   -2.0342 H     218  UNL218      0.2090
   1309 O           6.3295   11.8189    3.0785 O.3   219  UNL219     -0.3982
   1310 C           5.6749   12.7021    2.1863 C.3   219  UNL219      0.0330
   1311 H           5.5094   12.1992    1.2303 H     219  UNL219      0.0521
   1312 H           6.2887   13.5941    2.0395 H     219  UNL219      0.0521
   1313 H           4.7125   12.9912    2.6149 H     219  UNL219      0.0521
   1314 H           7.1797   11.5799    2.6715 H     219  UNL219      0.2090
   1315 O           7.0263   12.6252    4.8799 O.3   220  UNL220     -0.3982
   1316 C           5.6105   12.6252    4.8799 C.3   220  UNL220      0.0330
   1317 H           5.2452   11.8562    5.5651 H     220  UNL220      0.0521
   1318 H           5.2453   12.4305    3.8686 H     220  UNL220      0.0521
   1319 H           5.2552   13.6038    5.2111 H     220  UNL220      0.0521
   1320 H           7.3120   11.7448    4.5819 H     220  UNL220      0.2090
   1321 O           6.4617   12.6093    6.6076 O.3   221  UNL221     -0.3982
   1322 C           5.7041   12.2875    7.7596 C.3   221  UNL221      0.0330
   1323 H           5.0649   13.1333    8.0245 H     221  UNL221      0.0521
   1324 H           6.3788   12.0537    8.5868 H     221  UNL221      0.0521
   1325 H           5.0811   11.4165    7.5432 H     221  UNL221      0.0521
   1326 H           7.0041   13.3851    6.8299 H     221  UNL221      0.2090
   1327 O           7.0263   12.3852   10.4046 O.3   222  UNL222     -0.3982
   1328 C           5.6105   12.3852   10.4046 C.3   222  UNL222      0.0330
   1329 H           5.2452   12.0086    9.4459 H     222  UNL222      0.0521
   1330 H           5.2453   13.4013   10.5721 H     222  UNL222      0.0521
   1331 H           5.2552   11.7356   11.2080 H     222  UNL222      0.0521
   1332 H           7.3120   12.9696    9.6818 H     222  UNL222      0.2090
   1333 O           6.3191   11.5136   13.3469 O.3   223  UNL223     -0.3982
   1334 C           5.6717   12.6758   12.8624 C.3   223  UNL223      0.0330
   1335 H           6.2525   13.1017   12.0405 H     223  UNL223      0.0521
   1336 H           5.5759   13.4044   13.6710 H     223  UNL223      0.0521
   1337 H           4.6774   12.4038   12.5003 H     223  UNL223      0.0521
   1338 H           7.1981   11.7862   13.6611 H     223  UNL223      0.2090
   1339 O           7.0263   12.6252   15.7901 O.3   224  UNL224     -0.3982
   1340 C           5.6105   12.6252   15.7901 C.3   224  UNL224      0.0330
   1341 H           5.2452   11.8562   16.4753 H     224  UNL224      0.0521
   1342 H           5.2453   12.4305   14.7788 H     224  UNL224      0.0521
   1343 H           5.2552   13.6038   16.1213 H     224  UNL224      0.0521
   1344 H           7.3120   11.7448   15.4921 H     224  UNL224      0.2090
   1345 O           6.3743   13.1888   19.1772 O.3   225  UNL225     -0.3982
   1346 C           5.6969   12.4142   18.2047 C.3   225  UNL225      0.0330
   1347 H           5.2433   11.5426   18.6831 H     225  UNL225      0.0521
   1348 H           6.4038   12.0943   17.4354 H     225  UNL225      0.0521
   1349 H           4.9146   13.0240   17.7467 H     225  UNL225      0.0521
   1350 H           7.0619   12.6216   19.5659 H     225  UNL225      0.2090
   1351 O           6.2012   11.4510   22.4401 O.3   226  UNL226     -0.3982
   1352 C           6.0403   12.7921   22.0155 C.3   226  UNL226      0.0330
   1353 H           6.0240   13.4516   22.8868 H     226  UNL226      0.0521
   1354 H           5.1074   12.8882   21.4549 H     226  UNL226      0.0521
   1355 H           6.8797   13.0639   21.3712 H     226  UNL226      0.0521
   1356 H           5.4422   11.2387   23.0096 H     226  UNL226      0.2090
   1357 O           4.8263   15.4628    2.0451 O.3   227  UNL227     -0.3982
   1358 C           3.4105   15.4628    2.0451 C.3   227  UNL227      0.0330
   1359 H           3.0452   15.3365    3.0673 H     227  UNL227      0.0521
   1360 H           3.0453   14.6496    1.4132 H     227  UNL227      0.0521
   1361 H           3.0552   16.4170    1.6488 H     227  UNL227      0.0521
   1362 H           5.1120   14.6045    2.4016 H     227  UNL227      0.2090
   1363 O           7.0263   15.2145    4.7234 O.3   228  UNL228     -0.3982
   1364 C           5.6105   15.2145    4.7234 C.3   228  UNL228      0.0330
   1365 H           5.2452   16.2073    4.4493 H     228  UNL228      0.0521
   1366 H           5.2453   14.9415    5.7165 H     228  UNL228      0.0521
   1367 H           5.2552   14.4835    3.9934 H     228  UNL228      0.0521
   1368 H           7.3120   15.8721    5.3803 H     228  UNL228      0.2090
   1369 O           5.0263   15.1968    7.6450 O.3   229  UNL229     -0.3982
   1370 C           3.6105   15.1968    7.6450 C.3   229  UNL229      0.0330
   1371 H           3.2452   15.1080    6.6188 H     229  UNL229      0.0521
   1372 H           3.2453   16.1235    8.0942 H     229  UNL229      0.0521
   1373 H           3.2552   14.3458    8.2308 H     229  UNL229      0.0521
   1374 H           5.3120   15.9624    7.1180 H     229  UNL229      0.2090
   1375 O           5.2382   16.0058   10.7454 O.3   230  UNL230     -0.3982
   1376 C           6.0099   15.0516   10.0393 C.3   230  UNL230      0.0330
   1377 H           6.4378   14.3342   10.7440 H     230  UNL230      0.0521
   1378 H           6.8070   15.5599    9.4913 H     230  UNL230      0.0521
   1379 H           5.3640   14.5246    9.3332 H     230  UNL230      0.0521
   1380 H           5.8378   16.4571   11.3637 H     230  UNL230      0.2090
   1381 O           7.0263   15.4665   13.0625 O.3   231  UNL231     -0.3982
   1382 C           5.6105   15.4665   13.0625 C.3   231  UNL231      0.0330
   1383 H           5.2452   14.6975   13.7477 H     231  UNL231      0.0521
   1384 H           5.2453   15.2718   12.0512 H     231  UNL231      0.0521
   1385 H           5.2552   16.4451   13.3937 H     231  UNL231      0.0521
   1386 H           7.3120   14.5861   12.7645 H     231  UNL231      0.2090
   1387 O           6.4502   14.8473   16.5821 O.3   232  UNL232     -0.3982
   1388 C           5.7191   15.5883   15.6224 C.3   232  UNL232      0.0330
   1389 H           5.0200   14.9264   15.1051 H     232  UNL232      0.0521
   1390 H           6.4096   16.0387   14.9053 H     232  UNL232      0.0521
   1391 H           5.1611   16.3771   16.1324 H     232  UNL232      0.0521
   1392 H           6.9347   14.1555   16.1003 H     232  UNL232      0.2090
   1393 O           7.0263   15.2145   18.3612 O.3   233  UNL233     -0.3982
   1394 C           5.6105   15.2145   18.3612 C.3   233  UNL233      0.0330
   1395 H           5.2452   16.2073   18.0870 H     233  UNL233      0.0521
   1396 H           5.2453   14.9415   19.3542 H     233  UNL233      0.0521
   1397 H           5.2552   14.4835   17.6311 H     233  UNL233      0.0521
   1398 H           7.3120   15.8721   19.0180 H     233  UNL233      0.2090
   1399 O           7.0217   15.3180   22.3783 O.3   234  UNL234     -0.3982
   1400 C           5.6351   15.5191   22.1751 C.3   234  UNL234      0.0330
   1401 H           5.0702   14.9313   22.9030 H     234  UNL234      0.0521
   1402 H           5.3671   15.2166   21.1599 H     234  UNL234      0.0521
   1403 H           5.4063   16.5789   22.3095 H     234  UNL234      0.0521
   1404 H           7.1943   14.3694   22.2524 H     234  UNL234      0.2090
   1405 O           5.8263   18.3009   -0.6898 O.3   235  UNL235     -0.3982
   1406 C           4.4105   18.3009   -0.6898 C.3   235  UNL235      0.0330
   1407 H           4.0452   18.2287    0.3376 H     235  UNL235      0.0521
   1408 H           4.0453   17.4554   -1.2779 H     235  UNL235      0.0521
   1409 H           4.0552   19.2327   -1.1359 H     235  UNL235      0.0521
   1410 H           6.1120   17.4625   -0.2885 H     235  UNL235      0.2090
   1411 O           6.4364   18.4107    3.0443 O.3   236  UNL236     -0.3982
   1412 C           5.6563   18.2097    1.8800 C.3   236  UNL236      0.0330
   1413 H           5.3999   17.1512    1.7903 H     236  UNL236      0.0521
   1414 H           6.2201   18.5347    1.0021 H     236  UNL236      0.0521
   1415 H           4.7398   18.7989    1.9603 H     236  UNL236      0.0521
   1416 H           7.2422   17.8758    2.9441 H     236  UNL236      0.2090
   1417 O           6.6879   17.3722    4.7234 O.3   237  UNL237     -0.3982
   1418 C           5.6235   18.3058    4.7234 C.3   237  UNL237      0.0330
   1419 H           6.0035   19.2930    4.4493 H     237  UNL237      0.0521
   1420 H           5.1690   18.3414    5.7165 H     237  UNL237      0.0521
   1421 H           4.8744   17.9905    3.9934 H     237  UNL237      0.0521
   1422 H           7.3364   17.6782    5.3803 H     237  UNL237      0.2090
   1423 O           5.2263   18.3078    7.6074 O.3   238  UNL238     -0.3982
   1424 C           3.8105   18.3078    7.6074 C.3   238  UNL238      0.0330
   1425 H           3.4452   17.5388    8.2926 H     238  UNL238      0.0521
   1426 H           3.4453   18.1131    6.5961 H     238  UNL238      0.0521
   1427 H           3.4552   19.2864    7.9386 H     238  UNL238      0.0521
   1428 H           5.5120   17.4274    7.3094 H     238  UNL238      0.2090
   1429 O           5.2263   18.3078   10.3350 O.3   239  UNL239     -0.3982
   1430 C           3.8105   18.3078   10.3350 C.3   239  UNL239      0.0330
   1431 H           3.4452   17.5388   11.0202 H     239  UNL239      0.0521
   1432 H           3.4453   18.1131    9.3237 H     239  UNL239      0.0521
   1433 H           3.4552   19.2864   10.6662 H     239  UNL239      0.0521
   1434 H           5.5120   17.4274   10.0370 H     239  UNL239      0.2090
   1435 O           5.6263   18.2496   12.8881 O.3   240  UNL240     -0.3982
   1436 C           4.2105   18.2496   12.8881 C.3   240  UNL240      0.0330
   1437 H           3.8452   18.7005   13.8142 H     240  UNL240      0.0521
   1438 H           3.8453   17.2234   12.8011 H     240  UNL240      0.0521
   1439 H           3.8552   18.8340   12.0361 H     240  UNL240      0.0521
   1440 H           5.9120   17.7239   13.6546 H     240  UNL240      0.2090
   1441 O           7.0263   18.0558   15.6336 O.3   241  UNL241     -0.3982
   1442 C           5.6105   18.0558   15.6336 C.3   241  UNL241      0.0330
   1443 H           5.2452   19.0486   15.3595 H     241  UNL241      0.0521
   1444 H           5.2453   17.7828   16.6267 H     241  UNL241      0.0521
   1445 H           5.2552   17.3248   14.9036 H     241  UNL241      0.0521
   1446 H           7.3120   18.7134   16.2905 H     241  UNL241      0.2090
   1447 O           5.0263   18.3078   18.5176 O.3   242  UNL242     -0.3982
   1448 C           3.6105   18.3078   18.5176 C.3   242  UNL242      0.0330
   1449 H           3.2452   17.5388   19.2028 H     242  UNL242      0.0521
   1450 H           3.2453   18.1131   17.5063 H     242  UNL242      0.0521
   1451 H           3.2552   19.2864   18.8488 H     242  UNL242      0.0521
   1452 H           5.3120   17.4274   18.2196 H     242  UNL242      0.2090
   1453 O           5.0263   18.3078   21.8452 O.3   243  UNL243     -0.3982
   1454 C           3.6105   18.3078   21.8452 C.3   243  UNL243      0.0330
   1455 H           3.2452   17.5388   22.5304 H     243  UNL243      0.0521
   1456 H           3.2453   18.1131   20.8339 H     243  UNL243      0.0521
   1457 H           3.2552   19.2864   22.1764 H     243  UNL243      0.0521
   1458 H           5.3120   17.4274   21.5472 H     243  UNL243      0.2090
   1459 O           5.8263   21.1491   -0.5752 O.3   244  UNL244     -0.3982
   1460 C           4.4105   21.1491   -0.5752 C.3   244  UNL244      0.0330
   1461 H           4.0452   20.3801    0.1100 H     244  UNL244      0.0521
   1462 H           4.0453   20.9544   -1.5865 H     244  UNL244      0.0521
   1463 H           4.0552   22.1277   -0.2440 H     244  UNL244      0.0521
   1464 H           6.1120   20.2687   -0.8732 H     244  UNL244      0.2090
   1465 O           5.0263   21.1491    2.1523 O.3   245  UNL245     -0.3982
   1466 C           3.6105   21.1491    2.1523 C.3   245  UNL245      0.0330
   1467 H           3.2452   20.3801    2.8375 H     245  UNL245      0.0521
   1468 H           3.2453   20.9544    1.1410 H     245  UNL245      0.0521
   1469 H           3.2552   22.1277    2.4835 H     245  UNL245      0.0521
   1470 H           5.3120   20.2687    1.8543 H     245  UNL245      0.2090
   1471 O           7.0263   21.1491    4.8799 O.3   246  UNL246     -0.3982
   1472 C           5.6105   21.1491    4.8799 C.3   246  UNL246      0.0330
   1473 H           5.2452   20.3801    5.5651 H     246  UNL246      0.0521
   1474 H           5.2453   20.9544    3.8686 H     246  UNL246      0.0521
   1475 H           5.2552   22.1277    5.2111 H     246  UNL246      0.0521
   1476 H           7.3120   20.2687    4.5819 H     246  UNL246      0.2090
   1477 O           5.0263   21.1454    7.5002 O.3   247  UNL247     -0.3982
   1478 C           3.6105   21.1454    7.5002 C.3   247  UNL247      0.0330
   1479 H           3.2452   21.0191    8.5224 H     247  UNL247      0.0521
   1480 H           3.2453   20.3322    6.8683 H     247  UNL247      0.0521
   1481 H           3.2552   22.0996    7.1039 H     247  UNL247      0.0521
   1482 H           5.3120   20.2871    7.8567 H     247  UNL247      0.2090
   1483 O           6.5058   21.6776   10.7086 O.3   248  UNL248     -0.3982
   1484 C           5.4262   21.0224   10.0685 C.3   248  UNL248      0.0330
   1485 H           5.8007   20.1599    9.5117 H     248  UNL248      0.0521
   1486 H           4.9270   21.7186    9.3902 H     248  UNL248      0.0521
   1487 H           4.7164   20.6837   10.8268 H     248  UNL248      0.0521
   1488 H           7.1186   21.9667   10.0111 H     248  UNL248      0.2090
   1489 O           5.0263   21.1491   13.0625 O.3   249  UNL249     -0.3982
   1490 C           3.6105   21.1491   13.0625 C.3   249  UNL249      0.0330
   1491 H           3.2452   20.3801   13.7477 H     249  UNL249      0.0521
   1492 H           3.2453   20.9544   12.0512 H     249  UNL249      0.0521
   1493 H           3.2552   22.1277   13.3937 H     249  UNL249      0.0521
   1494 H           5.3120   20.2687   12.7645 H     249  UNL249      0.2090
   1495 O           5.6263   21.1491   15.7901 O.3   250  UNL250     -0.3982
   1496 C           4.2105   21.1491   15.7901 C.3   250  UNL250      0.0330
   1497 H           3.8452   20.3801   16.4753 H     250  UNL250      0.0521
   1498 H           3.8453   20.9544   14.7788 H     250  UNL250      0.0521
   1499 H           3.8552   22.1277   16.1213 H     250  UNL250      0.0521
   1500 H           5.9120   20.2687   15.4921 H     250  UNL250      0.2090
   1501 O           5.9316   21.4992   19.4378 O.3   251  UNL251     -0.3982
   1502 C           5.9398   21.0381   18.0992 C.3   251  UNL251      0.0330
   1503 H           5.0865   20.3751   17.9360 H     251  UNL251      0.0521
   1504 H           6.8726   20.5041   17.9025 H     251  UNL251      0.0521
   1505 H           5.8653   21.8964   17.4273 H     251  UNL251      0.0521
   1506 H           5.9989   20.7160   20.0101 H     251  UNL251      0.2090
   1507 O           6.8263   20.9352   22.0609 O.3   252  UNL252     -0.3982
   1508 C           5.4105   20.9352   22.0609 C.3   252  UNL252      0.0330
   1509 H           5.0452   21.9643   22.1042 H     252  UNL252      0.0521
   1510 H           5.0453   20.3711   22.9225 H     252  UNL252      0.0521
   1511 H           5.0552   20.4631   21.1419 H     252  UNL252      0.0521
   1512 H           7.1120   21.3599   22.8877 H     252  UNL252      0.2090
   1513 O           6.8973   22.8586   -0.7630 O.3   253  UNL253     -0.3982
   1514 C           5.8782   23.8355   -0.6551 C.3   253  UNL253      0.0330
   1515 H           5.1056   23.6417   -1.4033 H     253  UNL253      0.0521
   1516 H           6.3069   24.8289   -0.8074 H     253  UNL253      0.0521
   1517 H           5.4375   23.7804    0.3431 H     253  UNL253      0.0521
   1518 H           7.2693   22.9316   -1.6585 H     253  UNL253      0.2090
   1519 O           6.4471   23.8846    3.0700 O.3   254  UNL254     -0.3982
   1520 C           5.6705   23.9652    1.8889 C.3   254  UNL254      0.0330
   1521 H           5.2682   22.9780    1.6482 H     254  UNL254      0.0521
   1522 H           6.2927   24.3272    1.0668 H     254  UNL254      0.0521
   1523 H           4.8455   24.6623    2.0529 H     254  UNL254      0.0521
   1524 H           7.1707   23.2594    2.8941 H     254  UNL254      0.2090
   1525 O           7.0263   23.7384    4.7234 O.3   255  UNL255     -0.3982
   1526 C           5.6105   23.7384    4.7234 C.3   255  UNL255      0.0330
   1527 H           5.2452   24.7312    4.4493 H     255  UNL255      0.0521
   1528 H           5.2453   23.4654    5.7165 H     255  UNL255      0.0521
   1529 H           5.2552   23.0074    3.9934 H     255  UNL255      0.0521
   1530 H           7.3120   24.3960    5.3803 H     255  UNL255      0.2090
   1531 O           5.2263   23.9904    7.6074 O.3   256  UNL256     -0.3982
   1532 C           3.8105   23.9904    7.6074 C.3   256  UNL256      0.0330
   1533 H           3.4452   23.2214    8.2926 H     256  UNL256      0.0521
   1534 H           3.4453   23.7957    6.5961 H     256  UNL256      0.0521
   1535 H           3.4552   24.9690    7.9386 H     256  UNL256      0.0521
   1536 H           5.5120   23.1100    7.3094 H     256  UNL256      0.2090
   1537 O           4.7912   23.9904    9.6126 O.3   257  UNL257     -0.3982
   1538 C           3.7268   23.9904   10.5461 C.3   257  UNL257      0.0330
   1539 H           3.9039   23.2214   11.3021 H     257  UNL257      0.0521
   1540 H           2.7854   23.7957   10.0266 H     257  UNL257      0.0521
   1541 H           3.6780   24.9690   11.0294 H     257  UNL257      0.0521
   1542 H           4.8095   23.1100    9.2001 H     257  UNL257      0.2090
   1543 O           6.7084   23.8900   13.7144 O.3   258  UNL258     -0.3982
   1544 C           5.9508   23.7682   12.5246 C.3   258  UNL258      0.0330
   1545 H           5.0628   23.1611   12.7175 H     258  UNL258      0.0521
   1546 H           6.5624   23.3020   11.7484 H     258  UNL258      0.0521
   1547 H           5.6444   24.7637   12.1950 H     258  UNL258      0.0521
   1548 H           6.9659   22.9915   13.9824 H     258  UNL258      0.2090
   1549 O           6.5902   24.2041   16.7440 O.3   259  UNL259     -0.3982
   1550 C           5.6744   23.6196   15.8362 C.3   259  UNL259      0.0330
   1551 H           6.2234   23.1221   15.0329 H     259  UNL259      0.0521
   1552 H           5.0251   24.3950   15.4225 H     259  UNL259      0.0521
   1553 H           5.0665   22.8844   16.3688 H     259  UNL259      0.0521
   1554 H           7.1151   24.8515   16.2432 H     259  UNL259      0.2090
   1555 O           7.0263   23.6952   18.4889 O.3   260  UNL260     -0.3982
   1556 C           5.6105   23.6952   18.4889 C.3   260  UNL260      0.0330
   1557 H           5.2452   24.0815   17.5341 H     260  UNL260      0.0521
   1558 H           5.2453   24.3173   19.3096 H     260  UNL260      0.0521
   1559 H           5.2552   22.6710   18.6249 H     260  UNL260      0.0521
   1560 H           7.3120   24.6165   18.3665 H     260  UNL260      0.2090
   1561 O           6.7901   23.3050   22.6248 O.3   261  UNL261     -0.3982
   1562 C           5.7257   24.1422   22.2117 C.3   261  UNL261      0.0330
   1563 H           4.7856   23.5867   22.2561 H     261  UNL261      0.0521
   1564 H           5.9086   24.4890   21.1917 H     261  UNL261      0.0521
   1565 H           5.6698   25.0029   22.8823 H     261  UNL261      0.0521
   1566 H           6.8149   22.5508   22.0116 H     261  UNL261      0.2090
   1567 O           5.2263   26.8317   -0.5752 O.3   262  UNL262     -0.3982
   1568 C           3.8105   26.8317   -0.5752 C.3   262  UNL262      0.0330
   1569 H           3.4452   26.0627    0.1100 H     262  UNL262      0.0521
   1570 H           3.4453   26.6370   -1.5865 H     262  UNL262      0.0521
   1571 H           3.4552   27.8103   -0.2440 H     262  UNL262      0.0521
   1572 H           5.5120   25.9513   -0.8732 H     262  UNL262      0.2090
   1573 O           5.0263   26.8317    2.1523 O.3   263  UNL263     -0.3982
   1574 C           3.6105   26.8317    2.1523 C.3   263  UNL263      0.0330
   1575 H           3.2452   26.0627    2.8375 H     263  UNL263      0.0521
   1576 H           3.2453   26.6370    1.1410 H     263  UNL263      0.0521
   1577 H           3.2552   27.8103    2.4835 H     263  UNL263      0.0521
   1578 H           5.3120   25.9513    1.8543 H     263  UNL263      0.2090
   1579 O           4.7162   27.3912    4.0185 O.3   264  UNL264     -0.3982
   1580 C           4.6953   26.4465    5.0728 C.3   264  UNL264      0.0330
   1581 H           4.0785   25.5916    4.7850 H     264  UNL264      0.0521
   1582 H           4.2913   26.9140    5.9740 H     264  UNL264      0.0521
   1583 H           5.7158   26.1079    5.2668 H     264  UNL264      0.0521
   1584 H           3.7977   27.6732    3.8693 H     264  UNL264      0.2090
   1585 O           5.0263   26.8317    7.6074 O.3   265  UNL265     -0.3982
   1586 C           3.6105   26.8317    7.6074 C.3   265  UNL265      0.0330
   1587 H           3.2452   26.0627    8.2926 H     265  UNL265      0.0521
   1588 H           3.2453   26.6370    6.5961 H     265  UNL265      0.0521
   1589 H           3.2552   27.8103    7.9386 H     265  UNL265      0.0521
   1590 H           5.3120   25.9513    7.3094 H     265  UNL265      0.2090
   1591 O           4.8263   26.8317   10.3350 O.3   266  UNL266     -0.3982
   1592 C           3.4105   26.8317   10.3350 C.3   266  UNL266      0.0330
   1593 H           3.0452   26.0627   11.0202 H     266  UNL266      0.0521
   1594 H           3.0453   26.6370    9.3237 H     266  UNL266      0.0521
   1595 H           3.0552   27.8103   10.6662 H     266  UNL266      0.0521
   1596 H           5.1120   25.9513   10.0370 H     266  UNL266      0.2090
   1597 O           5.1268   26.4015   13.7187 O.3   267  UNL267     -0.3982
   1598 C           4.0624   26.9100   12.9358 C.3   267  UNL267      0.0330
   1599 H           3.3359   26.1157   12.7470 H     267  UNL267      0.0521
   1600 H           4.4547   27.2920   11.9902 H     267  UNL267      0.0521
   1601 H           3.5769   27.7227   13.4812 H     267  UNL267      0.0521
   1602 H           5.5381   25.6826   13.2093 H     267  UNL267      0.2090
   1603 O           5.0263   26.8372   15.7689 O.3   268  UNL268     -0.3982
   1604 C           3.6105   26.8372   15.7689 C.3   268  UNL268      0.0330
   1605 H           3.2452   26.1745   16.5573 H     268  UNL268      0.0521
   1606 H           3.2453   26.4994   14.7960 H     268  UNL268      0.0521
   1607 H           3.2552   27.8532   15.9562 H     268  UNL268      0.0521
   1608 H           5.3120   25.9231   15.6003 H     268  UNL268      0.2090
   1609 O           4.7912   26.8317   17.7952 O.3   269  UNL269     -0.3982
   1610 C           3.7268   26.8317   18.7288 C.3   269  UNL269      0.0330
   1611 H           3.9039   26.0627   19.4848 H     269  UNL269      0.0521
   1612 H           2.7854   26.6370   18.2093 H     269  UNL269      0.0521
   1613 H           3.6780   27.8103   19.2120 H     269  UNL269      0.0521
   1614 H           4.8095   25.9513   17.3828 H     269  UNL269      0.2090
   1615 O           5.0263   26.8317   21.8452 O.3   270  UNL270     -0.3982
   1616 C           3.6105   26.8317   21.8452 C.3   270  UNL270      0.0330
   1617 H           3.2452   26.0627   22.5304 H     270  UNL270      0.0521
   1618 H           3.2453   26.6370   20.8339 H     270  UNL270      0.0521
   1619 H           3.2552   27.8103   22.1764 H     270  UNL270      0.0521
   1620 H           5.3120   25.9513   21.5472 H     270  UNL270      0.2090
   1621 O           6.9260   29.9861   -0.7656 O.3   271  UNL271     -0.3982
   1622 C           5.6911   29.2938   -0.7509 C.3   271  UNL271      0.0330
   1623 H           4.8687   30.0131   -0.7746 H     271  UNL271      0.0521
   1624 H           5.6270   28.6806    0.1513 H     271  UNL271      0.0521
   1625 H           5.6344   28.6496   -1.6314 H     271  UNL271      0.0521
   1626 H           6.9474   30.5491    0.0270 H     271  UNL271      0.2090
   1627 O           4.7085   29.8420    2.0523 O.3   272  UNL272     -0.3982
   1628 C           6.0019   29.3028    2.2549 C.3   272  UNL272      0.0330
   1629 H           6.6734   30.0881    2.6107 H     272  UNL272      0.0521
   1630 H           6.3754   28.8869    1.3160 H     272  UNL272      0.0521
   1631 H           5.9428   28.5099    3.0041 H     272  UNL272      0.0521
   1632 H           4.7927   30.5425    1.3831 H     272  UNL272      0.2090
   1633 O           5.4511   28.6417    5.2166 O.3   273  UNL273     -0.3982
   1634 C           6.2443   29.6728    4.6579 C.3   273  UNL273      0.0330
   1635 H           6.5037   30.3959    5.4352 H     273  UNL273      0.0521
   1636 H           5.6896   30.1666    3.8564 H     273  UNL273      0.0521
   1637 H           7.1587   29.2360    4.2498 H     273  UNL273      0.0521
   1638 H           4.6474   29.0593    5.5704 H     273  UNL273      0.2090
   1639 O           5.0381   28.9698    7.9632 O.3   274  UNL274     -0.3982
   1640 C           5.9926   29.8083    7.3385 C.3   274  UNL274      0.0330
   1641 H           5.5327   30.3127    6.4850 H     274  UNL274      0.0521
   1642 H           6.8433   29.2086    7.0059 H     274  UNL274      0.0521
   1643 H           6.3353   30.5548    8.0588 H     274  UNL274      0.0521
   1644 H           4.7527   28.3182    7.3002 H     274  UNL274      0.2090
   1645 O           6.4363   29.9758   11.1501 O.3   275  UNL275     -0.3982
   1646 C           5.6435   29.5018   10.0771 C.3   275  UNL275      0.0330
   1647 H           5.5347   28.4172   10.1546 H     275  UNL275      0.0521
   1648 H           6.1183   29.7642    9.1285 H     275  UNL275      0.0521
   1649 H           4.6576   29.9694   10.1302 H     275  UNL275      0.0521
   1650 H           7.3043   29.5438   11.0766 H     275  UNL275      0.2090
   1651 O           4.8213   29.6033   12.4596 O.3   276  UNL276     -0.3982
   1652 C           6.0910   29.6033   13.0861 C.3   276  UNL276      0.0330
   1653 H           5.9645   29.5145   14.1680 H     276  UNL276      0.0521
   1654 H           6.6173   30.5300   12.8448 H     276  UNL276      0.0521
   1655 H           6.6688   28.7523   12.7180 H     276  UNL276      0.0521
   1656 H           4.3319   30.3689   12.8057 H     276  UNL276      0.2090
   1657 O           6.8263   29.8417   15.6391 O.3   277  UNL277     -0.3982
   1658 C           5.4105   29.8417   15.6391 C.3   277  UNL277      0.0330
   1659 H           5.0452   30.0647   16.6447 H     277  UNL277      0.0521
   1660 H           5.0453   28.8639   15.3158 H     277  UNL277      0.0521
   1661 H           5.0552   30.6082   14.9464 H     277  UNL277      0.0521
   1662 H           7.1120   29.1521   16.2624 H     277  UNL277      0.2090
   1663 O           6.5236   29.9994   17.6738 O.3   278  UNL278     -0.3982
   1664 C           5.6713   29.3011   18.5629 C.3   278  UNL278      0.0330
   1665 H           5.1311   30.0162   19.1884 H     278  UNL278      0.0521
   1666 H           6.2661   28.6306   19.1880 H     278  UNL278      0.0521
   1667 H           4.9555   28.7149   17.9820 H     278  UNL278      0.0521
   1668 H           7.1472   30.5101   18.2178 H     278  UNL278      0.2090
   1669 O           6.8263   29.6213   22.0754 O.3   279  UNL279     -0.3982
   1670 C           5.4105   29.6213   22.0754 C.3   279  UNL279      0.0330
   1671 H           5.0452   30.0230   23.0239 H     279  UNL279      0.0521
   1672 H           5.0453   28.6011   21.9348 H     279  UNL279      0.0521
   1673 H           5.0552   30.2494   21.2552 H     279  UNL279      0.0521
   1674 H           7.1120   29.0562   22.8134 H     279  UNL279      0.2090
   1675 O           7.0263   32.5143   -0.5752 O.3   280  UNL280     -0.3982
   1676 C           5.6105   32.5143   -0.5752 C.3   280  UNL280      0.0330
   1677 H           5.2452   31.7453    0.1100 H     280  UNL280      0.0521
   1678 H           5.2453   32.3196   -1.5865 H     280  UNL280      0.0521
   1679 H           5.2552   33.4929   -0.2440 H     280  UNL280      0.0521
   1680 H           7.3120   31.6339   -0.8732 H     280  UNL280      0.2090
   1681 O           5.8875   33.4538    2.0312 O.3   281  UNL281     -0.3982
   1682 C           5.7694   32.0453    2.1128 C.3   281  UNL281      0.0330
   1683 H           6.1892   31.6977    3.0600 H     281  UNL281      0.0521
   1684 H           6.3005   31.5852    1.2760 H     281  UNL281      0.0521
   1685 H           4.7122   31.7740    2.0639 H     281  UNL281      0.0521
   1686 H           6.8358   33.6641    2.0771 H     281  UNL281      0.2090
   1687 O           7.0263   32.4749    4.9415 O.3   282  UNL282     -0.3982
   1688 C           5.6105   32.4749    4.9415 C.3   282  UNL282      0.0330
   1689 H           5.2452   31.4752    5.1893 H     282  UNL282      0.0521
   1690 H           5.2453   32.7739    3.9560 H     282  UNL282      0.0521
   1691 H           5.2552   33.1864    5.6906 H     282  UNL282      0.0521
   1692 H           7.3120   31.8348    4.2675 H     282  UNL282      0.2090
   1693 O           5.0263   32.5143    7.6074 O.3   283  UNL283     -0.3982
   1694 C           3.6105   32.5143    7.6074 C.3   283  UNL283      0.0330
   1695 H           3.2452   31.7453    8.2926 H     283  UNL283      0.0521
   1696 H           3.2453   32.3196    6.5961 H     283  UNL283      0.0521
   1697 H           3.2552   33.4929    7.9386 H     283  UNL283      0.0521
   1698 H           5.3120   31.6339    7.3094 H     283  UNL283      0.2090
   1699 O           7.0263   32.2845   10.1857 O.3   284  UNL284     -0.3982
   1700 C           5.6105   32.2845   10.1857 C.3   284  UNL284      0.0330
   1701 H           5.2452   32.4926   11.1945 H     284  UNL284      0.0521
   1702 H           5.2453   31.3116    9.8479 H     284  UNL284      0.0521
   1703 H           5.2552   33.0612    9.5045 H     284  UNL284      0.0521
   1704 H           7.3120   31.5857   10.7986 H     284  UNL284      0.2090
   1705 O           4.9488   32.7918   12.9424 O.3   285  UNL285     -0.3982
   1706 C           6.2184   32.1717   12.8525 C.3   285  UNL285      0.0330
   1707 H           6.3196   31.4294   13.6481 H     285  UNL285      0.0521
   1708 H           7.0016   32.9282   12.9437 H     285  UNL285      0.0521
   1709 H           6.3042   31.6768   11.8823 H     285  UNL285      0.0521
   1710 H           4.9021   33.2222   13.8131 H     285  UNL285      0.2090
   1711 O           7.0263   32.5143   15.7901 O.3   286  UNL286     -0.3982
   1712 C           5.6105   32.5143   15.7901 C.3   286  UNL286      0.0330
   1713 H           5.2452   31.7453   16.4753 H     286  UNL286      0.0521
   1714 H           5.2453   32.3196   14.7788 H     286  UNL286      0.0521
   1715 H           5.2552   33.4929   16.1213 H     286  UNL286      0.0521
   1716 H           7.3120   31.6339   15.4921 H     286  UNL286      0.2090
   1717 O           4.9615   32.5143   18.9017 O.3   287  UNL287     -0.3982
   1718 C           6.2311   32.5143   18.2752 C.3   287  UNL287      0.0330
   1719 H           6.2555   31.7453   17.4991 H     287  UNL287      0.0521
   1720 H           7.0062   32.3196   19.0205 H     287  UNL287      0.0521
   1721 H           6.4032   33.4929   17.8210 H     287  UNL287      0.0521
   1722 H           4.8372   31.6339   19.2954 H     287  UNL287      0.2090
   1723 O           7.0263   32.3877   22.0451 O.3   288  UNL288     -0.3982
   1724 C           5.6105   32.3877   22.0451 C.3   288  UNL288      0.0330
   1725 H           5.2452   33.2179   22.6547 H     288  UNL288      0.0521
   1726 H           5.2453   31.4391   22.4460 H     288  UNL288      0.0521
   1727 H           5.2552   32.5081   21.0190 H     288  UNL288      0.0521
   1728 H           7.3120   32.2794   22.9682 H     288  UNL288      0.2090
   1729 O           6.3403   34.5495    0.0054 O.3   289  UNL289     -0.3982
   1730 C           5.5400   35.2514   -0.9282 C.3   289  UNL289      0.0330
   1731 H           6.1241   36.0597   -1.3752 H     289  UNL289      0.0521
   1732 H           4.6614   35.6590   -0.4224 H     289  UNL289      0.0521
   1733 H           5.2191   34.5605   -1.7113 H     289  UNL289      0.0521
   1734 H           6.6098   35.1879    0.6875 H     289  UNL289      0.2090
   1735 O           4.8401   37.2201    1.4673 O.3   290  UNL290     -0.3982
   1736 C           6.1040   36.7135    1.8553 C.3   290  UNL290      0.0330
   1737 H           5.9952   35.6799    2.1934 H     290  UNL290      0.0521
   1738 H           6.5134   37.3299    2.6593 H     290  UNL290      0.0521
   1739 H           6.7781   36.7444    0.9961 H     290  UNL290      0.0521
   1740 H           4.2639   37.1801    2.2496 H     290  UNL290      0.2090
   1741 O           6.3464   35.1992    4.8690 O.3   291  UNL291     -0.3982
   1742 C           6.0174   36.5741    4.7914 C.3   291  UNL291      0.0330
   1743 H           5.5510   36.8914    5.7274 H     291  UNL291      0.0521
   1744 H           5.3322   36.7390    3.9563 H     291  UNL291      0.0521
   1745 H           6.9316   37.1496    4.6289 H     291  UNL291      0.0521
   1746 H           5.5160   34.7144    5.0133 H     291  UNL291      0.2090
   1747 O           5.1264   34.7734    6.9974 O.3   292  UNL292     -0.3982
   1748 C           6.2490   35.4301    7.5568 C.3   292  UNL292      0.0330
   1749 H           6.9470   34.6878    7.9520 H     292  UNL292      0.0521
   1750 H           5.9202   36.0987    8.3561 H     292  UNL292      0.0521
   1751 H           6.7442   36.0138    6.7772 H     292  UNL292      0.0521
   1752 H           4.7079   34.2641    7.7122 H     292  UNL292      0.2090
   1753 O           6.7087   35.6096   10.9555 O.3   293  UNL293     -0.3982
   1754 C           5.6443   35.0033   10.2456 C.3   293  UNL293      0.0330
   1755 H           6.0488   34.3379    9.4788 H     293  UNL293      0.0521
   1756 H           5.0265   35.7768    9.7829 H     293  UNL293      0.0521
   1757 H           5.0361   34.4237   10.9439 H     293  UNL293      0.0521
   1758 H           7.2304   36.1165   10.3102 H     293  UNL293      0.2090
   1759 O           6.2700   37.3767   13.5850 O.3   294  UNL294     -0.3982
   1760 C           5.4316   36.4309   12.9472 C.3   294  UNL294      0.0330
   1761 H           5.8228   35.4243   13.1146 H     294  UNL294      0.0521
   1762 H           5.3897   36.6436   11.8762 H     294  UNL294      0.0521
   1763 H           4.4270   36.5040   13.3705 H     294  UNL294      0.0521
   1764 H           7.1536   37.2883   13.1889 H     294  UNL294      0.2090
   1765 O           6.1148   35.1358   15.0090 O.3   295  UNL295     -0.3982
   1766 C           5.8262   36.3411   15.6934 C.3   295  UNL295      0.0330
   1767 H           5.4395   36.1119   16.6895 H     295  UNL295      0.0521
   1768 H           5.0881   36.9147   15.1275 H     295  UNL295      0.0521
   1769 H           6.7446   36.9253   15.7869 H     295  UNL295      0.0521
   1770 H           5.2816   34.6391   14.9412 H     295  UNL295      0.2090
   1771 O           6.6671   35.5388   17.6982 O.3   296  UNL296     -0.3982
   1772 C           5.8758   36.0110   18.7731 C.3   296  UNL296      0.0330
   1773 H           5.5792   35.1703   19.4052 H     296  UNL296      0.0521
   1774 H           4.9898   36.5157   18.3802 H     296  UNL296      0.0521
   1775 H           6.4636   36.7180   19.3632 H     296  UNL296      0.0521
   1776 H           6.1193   34.9141   17.1931 H     296  UNL296      0.2090
   1777 O           6.8473   35.6911   20.8135 O.3   297  UNL297     -0.3982
   1778 C           5.7273   34.9136   21.1949 C.3   297  UNL297      0.0330
   1779 H           4.8083   35.4447   20.9346 H     297  UNL297      0.0521
   1780 H           5.7610   34.7280   22.2712 H     297  UNL297      0.0521
   1781 H           5.7582   33.9605   20.6618 H     297  UNL297      0.0521
   1782 H           6.7927   36.5300   21.3022 H     297  UNL297      0.2090
   1783 O           8.0714    0.9648   -0.6040 O.3   298  UNL298     -0.3982
   1784 C           6.6556    0.9648   -0.6040 C.3   298  UNL298      0.0330
   1785 H           6.2903    1.3511   -1.5587 H     298  UNL298      0.0521
   1786 H           6.2904    1.5869    0.2167 H     298  UNL298      0.0521
   1787 H           6.3003   -0.0594   -0.4679 H     298  UNL298      0.0521
   1788 H           8.3571    1.8861   -0.7263 H     298  UNL298      0.2090
   1789 O           8.2920    0.5208    1.9782 O.3   299  UNL299     -0.3982
   1790 C           9.5616    1.1215    2.1561 C.3   299  UNL299      0.0330
   1791 H           9.5489    1.7431    3.0549 H     299  UNL299      0.0521
   1792 H           9.8030    1.7311    1.2820 H     299  UNL299      0.0521
   1793 H          10.3133    0.3367    2.2691 H     299  UNL299      0.0521
   1794 H           7.6462    1.2412    1.8808 H     299  UNL299      0.2090
   1795 O          10.2714    1.2600    4.8799 O.3   300  UNL300     -0.3982
   1796 C           8.8556    1.2600    4.8799 C.3   300  UNL300      0.0330
   1797 H           8.4903    0.4910    5.5651 H     300  UNL300      0.0521
   1798 H           8.4904    1.0653    3.8686 H     300  UNL300      0.0521
   1799 H           8.5003    2.2386    5.2111 H     300  UNL300      0.0521
   1800 H          10.5571    0.3796    4.5819 H     300  UNL300      0.2090
   1801 O           9.9482    0.9570    8.3266 O.3   301  UNL301     -0.3982
   1802 C           8.8838    1.2911    7.4549 C.3   301  UNL301      0.0330
   1803 H           8.3047    0.3934    7.2247 H     301  UNL301      0.0521
   1804 H           9.2866    1.7234    6.5357 H     301  UNL301      0.0521
   1805 H           8.2382    2.0225    7.9465 H     301  UNL301      0.0521
   1806 H          10.5036    0.3070    7.8634 H     301  UNL301      0.2090
   1807 O           6.4583    0.9648   11.0731 O.3   302  UNL302     -0.3982
   1808 C           7.4059    0.9648   10.0212 C.3   302  UNL302      0.0330
   1809 H           8.3598    1.3511   10.3887 H     302  UNL302      0.0521
   1810 H           7.0405    1.5869    9.2005 H     302  UNL302      0.0521
   1811 H           7.5426   -0.0594    9.6661 H     302  UNL302      0.0521
   1812 H           6.3581    1.8861   11.3673 H     302  UNL302      0.2090
   1813 O           8.2714    1.0080   12.9061 O.3   303  UNL303     -0.3982
   1814 C           6.8556    1.0080   12.9061 C.3   303  UNL303      0.0330
   1815 H           6.4903    2.0008   12.6319 H     303  UNL303      0.0521
   1816 H           6.4904    0.7350   13.8991 H     303  UNL303      0.0521
   1817 H           6.5003    0.2770   12.1760 H     303  UNL303      0.0521
   1818 H           8.5571    1.6656   13.5629 H     303  UNL303      0.2090
   1819 O          10.2714    1.2353   15.8355 O.3   304  UNL304     -0.3982
   1820 C           8.8556    1.2353   15.8355 C.3   304  UNL304      0.0330
   1821 H           8.4903    0.2815   16.2242 H     304  UNL304      0.0521
   1822 H           8.4904    1.3899   14.8173 H     304  UNL304      0.0521
   1823 H           8.5003    2.0470   16.4747 H     304  UNL304      0.0521
   1824 H          10.5571    0.5052   15.2603 H     304  UNL304      0.2090
   1825 O           9.0860    0.7638   19.4925 O.3   305  UNL305     -0.3982
   1826 C           9.0607    1.3256   18.1932 C.3   305  UNL305      0.0330
   1827 H           8.9902    0.5266   17.4510 H     305  UNL305      0.0521
   1828 H           9.9696    1.9098   18.0302 H     305  UNL305      0.0521
   1829 H           8.1896    1.9792   18.1057 H     305  UNL305      0.0521
   1830 H           9.8691    0.1893   19.5402 H     305  UNL305      0.2090
   1831 O           8.0992    0.5139   22.2452 O.3   306  UNL306     -0.3982
   1832 C           7.0347    1.4474   22.2452 C.3   306  UNL306      0.0330
   1833 H           6.2530    1.1102   22.9304 H     306  UNL306      0.0521
   1834 H           6.6318    1.5418   21.2339 H     306  UNL306      0.0521
   1835 H           7.4129    2.4174   22.5764 H     306  UNL306      0.0521
   1836 H           7.7334   -0.3364   21.9472 H     306  UNL306      0.2090
   1837 O          10.2714    3.8613   -0.5056 O.3   307  UNL307     -0.3982
   1838 C           8.8556    3.8613   -0.5056 C.3   307  UNL307      0.0330
   1839 H           8.4903    3.4847   -1.4643 H     307  UNL307      0.0521
   1840 H           8.4904    4.8774   -0.3381 H     307  UNL307      0.0521
   1841 H           8.5003    3.2117    0.2978 H     307  UNL307      0.0521
   1842 H          10.5571    4.4457   -1.2284 H     307  UNL307      0.2090
   1843 O           8.7951    3.0438    2.5398 O.3   308  UNL308     -0.3982
   1844 C           9.4391    4.2351    2.1267 C.3   308  UNL308      0.0330
   1845 H           8.7096    5.0475    2.0805 H     308  UNL308      0.0521
   1846 H           9.8935    4.0829    1.1447 H     308  UNL308      0.0521
   1847 H          10.2173    4.4878    2.8507 H     308  UNL308      0.0521
   1848 H           8.1105    2.8450    1.8786 H     308  UNL308      0.2090
   1849 O          10.1437    4.2647    5.2640 O.3   309  UNL309     -0.3982
   1850 C           9.0051    3.7029    4.6375 C.3   309  UNL309      0.0330
   1851 H           8.6430    4.3817    3.8613 H     309  UNL309      0.0521
   1852 H           8.2239    3.5345    5.3827 H     309  UNL309      0.0521
   1853 H           9.2839    2.7491    4.1832 H     309  UNL309      0.0521
   1854 H           9.8656    5.1092    5.6576 H     309  UNL309      0.2090
   1855 O           8.2066    4.1013    7.9915 O.3   310  UNL310     -0.3982
   1856 C           9.4762    4.1013    7.3650 C.3   310  UNL310      0.0330
   1857 H           9.5006    3.3323    6.5889 H     310  UNL310      0.0521
   1858 H          10.2512    3.9066    8.1103 H     310  UNL310      0.0521
   1859 H           9.6483    5.0799    6.9108 H     310  UNL310      0.0521
   1860 H           8.0822    3.2209    8.3852 H     310  UNL310      0.2090
   1861 O           8.8496    4.9841   10.1864 O.3   311  UNL311     -0.3982
   1862 C           9.1262    3.6137   10.4100 C.3   311  UNL311      0.0330
   1863 H          10.0319    3.5177   11.0140 H     311  UNL311      0.0521
   1864 H           9.2594    3.1068    9.4512 H     311  UNL311      0.0521
   1865 H           8.2856    3.1641   10.9437 H     311  UNL311      0.0521
   1866 H           9.6125    5.3557    9.7116 H     311  UNL311      0.2090
   1867 O           8.0664    3.8775   13.5084 O.3   312  UNL312     -0.3982
   1868 C           9.3360    4.2986   13.0444 C.3   312  UNL312      0.0330
   1869 H           9.2095    5.0913   12.3029 H     312  UNL312      0.0521
   1870 H           9.8623    3.4501   12.6003 H     312  UNL312      0.0521
   1871 H           9.9139    4.6814   13.8889 H     312  UNL312      0.0521
   1872 H           7.5770    3.5432   12.7375 H     312  UNL312      0.2090
   1873 O           9.8686    3.2439   15.2721 O.3   313  UNL313     -0.3982
   1874 C           9.1375    4.2035   16.0130 C.3   313  UNL313      0.0330
   1875 H           8.2295    3.7435   16.4109 H     313  UNL313      0.0521
   1876 H           8.8789    5.0450   15.3657 H     313  UNL313      0.0521
   1877 H           9.7555    4.5597   16.8405 H     313  UNL313      0.0521
   1878 H           9.2951    2.9465   14.5454 H     313  UNL313      0.2090
   1879 O          10.2714    4.1024   18.4234 O.3   314  UNL314     -0.3982
   1880 C           8.8556    4.1024   18.4234 C.3   314  UNL314      0.0330
   1881 H           8.4903    3.8835   19.4299 H     314  UNL314      0.0521
   1882 H           8.4904    3.3501   17.7201 H     314  UNL314      0.0521
   1883 H           8.5003    5.0886   18.1157 H     314  UNL314      0.0521
   1884 H          10.5571    3.2151   18.7003 H     314  UNL314      0.2090
   1885 O           9.2188    4.9825   20.6340 O.3   315  UNL315     -0.3982
   1886 C           9.3712    3.6327   21.0331 C.3   315  UNL315      0.0330
   1887 H           8.6096    3.0193   20.5452 H     315  UNL315      0.0521
   1888 H           9.2725    3.5596   22.1189 H     315  UNL315      0.0521
   1889 H          10.3627    3.2839   20.7353 H     315  UNL315      0.0521
   1890 H           8.3303    5.2640   20.9116 H     315  UNL315      0.2090
   1891 O          10.2714    6.9426   -0.5752 O.3   316  UNL316     -0.3982
   1892 C           8.8556    6.9426   -0.5752 C.3   316  UNL316      0.0330
   1893 H           8.4903    6.1736    0.1100 H     316  UNL316      0.0521
   1894 H           8.4904    6.7479   -1.5865 H     316  UNL316      0.0521
   1895 H           8.5003    7.9212   -0.2440 H     316  UNL316      0.0521
   1896 H          10.5571    6.0622   -0.8732 H     316  UNL316      0.2090
   1897 O          10.2714    6.9426    2.1523 O.3   317  UNL317     -0.3982
   1898 C           8.8556    6.9426    2.1523 C.3   317  UNL317      0.0330
   1899 H           8.4903    6.1736    2.8375 H     317  UNL317      0.0521
   1900 H           8.4904    6.7479    1.1410 H     317  UNL317      0.0521
   1901 H           8.5003    7.9212    2.4835 H     317  UNL317      0.0521
   1902 H          10.5571    6.0622    1.8543 H     317  UNL317      0.2090
   1903 O          10.2714    6.6474    4.8511 O.3   318  UNL318     -0.3982
   1904 C           8.8556    6.6474    4.8511 C.3   318  UNL318      0.0330
   1905 H           8.4903    7.0337    3.8964 H     318  UNL318      0.0521
   1906 H           8.4904    7.2695    5.6718 H     318  UNL318      0.0521
   1907 H           8.5003    5.6232    4.9872 H     318  UNL318      0.0521
   1908 H          10.5571    7.5687    4.7288 H     318  UNL318      0.2090
   1909 O           8.4714    6.9357    7.4928 O.3   319  UNL319     -0.3982
   1910 C           7.0556    6.9357    7.4928 C.3   319  UNL319      0.0330
   1911 H           6.6903    6.8635    8.5203 H     319  UNL319      0.0521
   1912 H           6.6904    6.0902    6.9047 H     319  UNL319      0.0521
   1913 H           6.7003    7.8675    7.0468 H     319  UNL319      0.0521
   1914 H           8.7571    6.0973    7.8941 H     319  UNL319      0.2090
   1915 O           8.2714    6.6906   10.1785 O.3   320  UNL320     -0.3982
   1916 C           6.8556    6.6906   10.1785 C.3   320  UNL320      0.0330
   1917 H           6.4903    7.6834    9.9044 H     320  UNL320      0.0521
   1918 H           6.4904    6.4176   11.1716 H     320  UNL320      0.0521
   1919 H           6.5003    5.9596    9.4485 H     320  UNL320      0.0521
   1920 H           8.5571    7.3482   10.8354 H     320  UNL320      0.2090
   1921 O          10.2714    6.7511   12.8689 O.3   321  UNL321     -0.3982
   1922 C           8.8556    6.7511   12.8689 C.3   321  UNL321      0.0330
   1923 H           8.4903    7.7603   13.0749 H     321  UNL321      0.0521
   1924 H           8.4904    6.0574   13.6301 H     321  UNL321      0.0521
   1925 H           8.5003    6.4308   11.8867 H     321  UNL321      0.0521
   1926 H          10.5571    7.0392   13.7526 H     321  UNL321      0.2090
   1927 O          10.2714    6.9426   15.7901 O.3   322  UNL322     -0.3982
   1928 C           8.8556    6.9426   15.7901 C.3   322  UNL322      0.0330
   1929 H           8.4903    6.1736   16.4753 H     322  UNL322      0.0521
   1930 H           8.4904    6.7479   14.7788 H     322  UNL322      0.0521
   1931 H           8.5003    7.9212   16.1213 H     322  UNL322      0.0521
   1932 H          10.5571    6.0622   15.4921 H     322  UNL322      0.2090
   1933 O           8.2554    6.8692   19.0140 O.3   323  UNL323     -0.3982
   1934 C           9.4237    6.9478   18.2182 C.3   323  UNL323      0.0330
   1935 H           9.4794    6.0743   17.5638 H     323  UNL323      0.0521
   1936 H          10.3038    6.9888   18.8646 H     323  UNL323      0.0521
   1937 H           9.3789    7.8540   17.6097 H     323  UNL323      0.0521
   1938 H           8.3238    6.0558   19.5425 H     323  UNL323      0.2090
   1939 O          10.2714    6.9426   22.2452 O.3   324  UNL324     -0.3982
   1940 C           8.8556    6.9426   22.2452 C.3   324  UNL324      0.0330
   1941 H           8.4903    6.1736   22.9304 H     324  UNL324      0.0521
   1942 H           8.4904    6.7479   21.2339 H     324  UNL324      0.0521
   1943 H           8.5003    7.9212   22.5764 H     324  UNL324      0.0521
   1944 H          10.5571    6.0622   21.9472 H     324  UNL324      0.2090
   1945 O           8.5331    9.0101   -1.1153 O.3   325  UNL325     -0.3982
   1946 C           7.4687    9.6618   -0.4469 C.3   325  UNL325      0.0330
   1947 H           7.0133   10.3969   -1.1152 H     325  UNL325      0.0521
   1948 H           7.8489   10.1558    0.4506 H     325  UNL325      0.0521
   1949 H           6.7202    8.9189   -0.1618 H     325  UNL325      0.0521
   1950 H           9.1810    9.6941   -1.3557 H     325  UNL325      0.2090
   1951 O           8.2714    9.4967    2.0509 O.3   326  UNL326     -0.3982
   1952 C           6.8556    9.4967    2.0509 C.3   326  UNL326      0.0330
   1953 H           6.4903   10.2835    1.3862 H     326  UNL326      0.0521
   1954 H           6.4904    9.6646    3.0670 H     326  UNL326      0.0521
   1955 H           6.5003    8.5272    1.6940 H     326  UNL326      0.0521
   1956 H           8.5571   10.3689    2.3720 H     326  UNL326      0.2090
   1957 O          10.2714    9.5319    4.7234 O.3   327  UNL327     -0.3982
   1958 C           8.8556    9.5319    4.7234 C.3   327  UNL327      0.0330
   1959 H           8.4903   10.5247    4.4493 H     327  UNL327      0.0521
   1960 H           8.4904    9.2589    5.7165 H     327  UNL327      0.0521
   1961 H           8.5003    8.8009    3.9934 H     327  UNL327      0.0521
   1962 H          10.5571   10.1895    5.3803 H     327  UNL327      0.2090
   1963 O           8.8714    9.7839    7.6074 O.3   328  UNL328     -0.3982
   1964 C           7.4556    9.7839    7.6074 C.3   328  UNL328      0.0330
   1965 H           7.0903    9.0149    8.2926 H     328  UNL328      0.0521
   1966 H           7.0904    9.5892    6.5961 H     328  UNL328      0.0521
   1967 H           7.1003   10.7625    7.9386 H     328  UNL328      0.0521
   1968 H           9.1571    8.9035    7.3094 H     328  UNL328      0.2090
   1969 O           8.0714    9.7839   10.3350 O.3   329  UNL329     -0.3982
   1970 C           6.6556    9.7839   10.3350 C.3   329  UNL329      0.0330
   1971 H           6.2903    9.0149   11.0202 H     329  UNL329      0.0521
   1972 H           6.2904    9.5892    9.3237 H     329  UNL329      0.0521
   1973 H           6.3003   10.7625   10.6662 H     329  UNL329      0.0521
   1974 H           8.3571    8.9035   10.0370 H     329  UNL329      0.2090
   1975 O           8.2714    9.4876   13.0039 O.3   330  UNL330     -0.3982
   1976 C           6.8556    9.4876   13.0039 C.3   330  UNL330      0.0330
   1977 H           6.4903   10.0533   12.1431 H     330  UNL330      0.0521
   1978 H           6.4904    9.9373   13.9304 H     330  UNL330      0.0521
   1979 H           6.5003    8.4567   12.9370 H     330  UNL330      0.0521
   1980 H           8.5571   10.4152   13.0640 H     330  UNL330      0.2090
   1981 O          10.2714    9.5319   15.6336 O.3   331  UNL331     -0.3982
   1982 C           8.8556    9.5319   15.6336 C.3   331  UNL331      0.0330
   1983 H           8.4903   10.5247   15.3595 H     331  UNL331      0.0521
   1984 H           8.4904    9.2589   16.6267 H     331  UNL331      0.0521
   1985 H           8.5003    8.8009   14.9036 H     331  UNL331      0.0521
   1986 H          10.5571   10.1895   16.2905 H     331  UNL331      0.2090
   1987 O           8.2714    9.7839   18.5176 O.3   332  UNL332     -0.3982
   1988 C           6.8556    9.7839   18.5176 C.3   332  UNL332      0.0330
   1989 H           6.4903    9.0149   19.2028 H     332  UNL332      0.0521
   1990 H           6.4904    9.5892   17.5063 H     332  UNL332      0.0521
   1991 H           6.5003   10.7625   18.8488 H     332  UNL332      0.0521
   1992 H           8.5571    8.9035   18.2196 H     332  UNL332      0.2090
   1993 O           6.2371    9.4887   20.7017 O.3   333  UNL333     -0.3982
   1994 C           7.5067    9.4887   21.3282 C.3   333  UNL333      0.0330
   1995 H           7.4118    9.8750   22.3460 H     333  UNL333      0.0521
   1996 H           8.1974   10.1108   20.7538 H     333  UNL333      0.0521
   1997 H           7.8855    8.4645   21.3634 H     333  UNL333      0.0521
   1998 H           5.9267   10.4100   20.6850 H     333  UNL333      0.2090
   1999 O          10.0714   12.5332   -0.6612 O.3   334  UNL334     -0.3982
   2000 C           8.6556   12.5332   -0.6612 C.3   334  UNL334      0.0330
   2001 H           8.2903   13.2453   -1.4054 H     334  UNL334      0.0521
   2002 H           8.2904   12.8078    0.3314 H     334  UNL334      0.0521
   2003 H           8.3003   11.5314   -0.9135 H     334  UNL334      0.0521
   2004 H          10.3571   13.4346   -0.4342 H     334  UNL334      0.2090
   2005 O           9.7579   12.1844    2.9855 O.3   335  UNL335     -0.3982
   2006 C           8.8874   12.6375    1.9650 C.3   335  UNL335      0.0330
   2007 H           8.5892   11.7937    1.3378 H     335  UNL335      0.0521
   2008 H           9.3953   13.3929    1.3605 H     335  UNL335      0.0521
   2009 H           7.9998   13.0784    2.4249 H     335  UNL335      0.0521
   2010 H          10.5355   11.7986    2.5473 H     335  UNL335      0.2090
   2011 O          10.2714   12.6252    4.8799 O.3   336  UNL336     -0.3982
   2012 C           8.8556   12.6252    4.8799 C.3   336  UNL336      0.0330
   2013 H           8.4903   11.8562    5.5651 H     336  UNL336      0.0521
   2014 H           8.4904   12.4305    3.8686 H     336  UNL336      0.0521
   2015 H           8.5003   13.6038    5.2111 H     336  UNL336      0.0521
   2016 H          10.5571   11.7448    4.5819 H     336  UNL336      0.2090
   2017 O           9.7068   12.1994    6.6412 O.3   337  UNL337     -0.3982
   2018 C           8.9492   12.3894    7.8221 C.3   337  UNL337      0.0330
   2019 H           8.3100   13.2685    7.7085 H     337  UNL337      0.0521
   2020 H           9.6238   12.5234    8.6712 H     337  UNL337      0.0521
   2021 H           8.3262   11.5078    7.9903 H     337  UNL337      0.0521
   2022 H          10.2491   12.9970    6.5183 H     337  UNL337      0.2090
   2023 O          10.2714   12.4032   10.4171 O.3   338  UNL338     -0.3982
   2024 C           8.8556   12.4032   10.4171 C.3   338  UNL338      0.0330
   2025 H           8.4903   11.8929    9.5224 H     338  UNL338      0.0521
   2026 H           8.4904   13.4328   10.4371 H     338  UNL338      0.0521
   2027 H           8.5003   11.8756   11.3054 H     338  UNL338      0.0521
   2028 H          10.5571   12.8778    9.6180 H     338  UNL338      0.2090
   2029 O           8.2850   13.0368   12.7946 O.3   339  UNL339     -0.3982
   2030 C           9.5428   12.4869   13.1412 C.3   339  UNL339      0.0330
   2031 H          10.0074   12.0498   12.2538 H     339  UNL339      0.0521
   2032 H           9.4077   11.7216   13.9093 H     339  UNL339      0.0521
   2033 H          10.1830   13.2820   13.5307 H     339  UNL339      0.0521
   2034 H           7.7392   12.3084   12.4525 H     339  UNL339      0.2090
   2035 O           9.7044   13.4327   15.8731 O.3   340  UNL340     -0.3982
   2036 C           8.9490   12.2352   15.8731 C.3   340  UNL340      0.0330
   2037 H           9.6252   11.3767   15.8811 H     340  UNL340      0.0521
   2038 H           8.3140   12.2041   14.9844 H     340  UNL340      0.0521
   2039 H           8.3219   12.2108   16.7673 H     340  UNL340      0.0521
   2040 H          10.2505   13.4260   15.0685 H     340  UNL340      0.2090
   2041 O          10.2315   12.5539   18.1492 O.3   341  UNL341     -0.3982
   2042 C           8.9308   12.5888   18.7072 C.3   341  UNL341      0.0330
   2043 H           8.6514   11.5878   19.0453 H     341  UNL341      0.0521
   2044 H           8.2205   12.9427   17.9560 H     341  UNL341      0.0521
   2045 H           8.9278   13.2729   19.5590 H     341  UNL341      0.0521
   2046 H          10.2030   11.9394   17.3962 H     341  UNL341      0.2090
   2047 O          10.0714   12.3555   22.2827 O.3   342  UNL342     -0.3982
   2048 C           8.6556   12.3555   22.2827 C.3   342  UNL342      0.0330
   2049 H           8.2903   12.2667   21.2566 H     342  UNL342      0.0521
   2050 H           8.2904   13.2822   22.7319 H     342  UNL342      0.0521
   2051 H           8.3003   11.5045   22.8685 H     342  UNL342      0.0521
   2052 H          10.3571   13.1211   21.7557 H     342  UNL342      0.2090
   2053 O           7.6160   14.7558   -0.1911 O.3   343  UNL343     -0.3982
   2054 C           6.4774   15.3177   -0.8176 C.3   343  UNL343      0.0330
   2055 H           6.7959   16.0180   -1.5938 H     343  UNL343      0.0521
   2056 H           5.8686   15.8352   -0.0724 H     343  UNL343      0.0521
   2057 H           5.8901   14.5162   -1.2719 H     343  UNL343      0.0521
   2058 H           8.1171   15.4903    0.2025 H     343  UNL343      0.2090
   2059 O           8.2714   15.4665    2.1523 O.3   344  UNL344     -0.3982
   2060 C           6.8556   15.4665    2.1523 C.3   344  UNL344      0.0330
   2061 H           6.4903   14.6975    2.8375 H     344  UNL344      0.0521
   2062 H           6.4904   15.2718    1.1410 H     344  UNL344      0.0521
   2063 H           6.5003   16.4451    2.4835 H     344  UNL344      0.0521
   2064 H           8.5571   14.5861    1.8543 H     344  UNL344      0.2090
   2065 O          10.2714   15.2145    4.7234 O.3   345  UNL345     -0.3982
   2066 C           8.8556   15.2145    4.7234 C.3   345  UNL345      0.0330
   2067 H           8.4903   16.2073    4.4493 H     345  UNL345      0.0521
   2068 H           8.4904   14.9415    5.7165 H     345  UNL345      0.0521
   2069 H           8.5003   14.4835    3.9934 H     345  UNL345      0.0521
   2070 H          10.5571   15.8721    5.3803 H     345  UNL345      0.2090
   2071 O           8.2714   15.1968    7.6450 O.3   346  UNL346     -0.3982
   2072 C           6.8556   15.1968    7.6450 C.3   346  UNL346      0.0330
   2073 H           6.4903   15.1080    6.6188 H     346  UNL346      0.0521
   2074 H           6.4904   16.1235    8.0942 H     346  UNL346      0.0521
   2075 H           6.5003   14.3458    8.2308 H     346  UNL346      0.0521
   2076 H           8.5571   15.9624    7.1180 H     346  UNL346      0.2090
   2077 O           8.4833   16.0058   10.7454 O.3   347  UNL347     -0.3982
   2078 C           9.2550   15.0516   10.0393 C.3   347  UNL347      0.0330
   2079 H           9.6828   14.3342   10.7440 H     347  UNL347      0.0521
   2080 H          10.0520   15.5599    9.4913 H     347  UNL347      0.0521
   2081 H           8.6091   14.5246    9.3332 H     347  UNL347      0.0521
   2082 H           9.0829   16.4571   11.3637 H     347  UNL347      0.2090
   2083 O          10.2714   15.4665   13.0625 O.3   348  UNL348     -0.3982
   2084 C           8.8556   15.4665   13.0625 C.3   348  UNL348      0.0330
   2085 H           8.4903   14.6975   13.7477 H     348  UNL348      0.0521
   2086 H           8.4904   15.2718   12.0512 H     348  UNL348      0.0521
   2087 H           8.5003   16.4451   13.3937 H     348  UNL348      0.0521
   2088 H          10.5571   14.5861   12.7645 H     348  UNL348      0.2090
   2089 O           8.2607   14.7657   15.7925 O.3   349  UNL349     -0.3982
   2090 C           9.5367   15.3738   15.8749 C.3   349  UNL349      0.0330
   2091 H           9.4211   16.4354   16.1071 H     349  UNL349      0.0521
   2092 H          10.0610   15.2528   14.9239 H     349  UNL349      0.0521
   2093 H          10.1103   14.8898   16.6689 H     349  UNL349      0.0521
   2094 H           7.7753   15.2158   15.0802 H     349  UNL349      0.2090
   2095 O          10.2714   15.2145   18.3612 O.3   350  UNL350     -0.3982
   2096 C           8.8556   15.2145   18.3612 C.3   350  UNL350      0.0330
   2097 H           8.4903   16.2073   18.0870 H     350  UNL350      0.0521
   2098 H           8.4904   14.9415   19.3542 H     350  UNL350      0.0521
   2099 H           8.5003   14.4835   17.6311 H     350  UNL350      0.0521
   2100 H          10.5571   15.8721   19.0180 H     350  UNL350      0.2090
   2101 O           8.4519   14.5316   20.9096 O.3   351  UNL351     -0.3982
   2102 C           9.5321   15.4243   21.1112 C.3   351  UNL351      0.0330
   2103 H           9.2044   16.2592   21.7357 H     351  UNL351      0.0521
   2104 H           9.8853   15.7943   20.1456 H     351  UNL351      0.0521
   2105 H          10.3434   14.8926   21.6140 H     351  UNL351      0.0521
   2106 H           7.7480   15.0313   20.4620 H     351  UNL351      0.2090
   2107 O           9.6803   18.4808    0.2961 O.3   352  UNL352     -0.3982
   2108 C           8.8890   18.1677   -0.8355 C.3   352  UNL352      0.0330
   2109 H           8.7774   17.0835   -0.9145 H     352  UNL352      0.0521
   2110 H           9.3668   18.5621   -1.7356 H     352  UNL352      0.0521
   2111 H           7.9041   18.6257   -0.7180 H     352  UNL352      0.0521
   2112 H          10.5474   18.0613    0.1632 H     352  UNL352      0.2090
   2113 O           8.0664   18.1189    1.3371 O.3   353  UNL353     -0.3982
   2114 C           9.3360   18.0290    1.9572 C.3   353  UNL353      0.0330
   2115 H           9.2095   17.7859    3.0151 H     353  UNL353      0.0521
   2116 H           9.8623   18.9807    1.8514 H     353  UNL353      0.0521
   2117 H           9.9139   17.2396    1.4707 H     353  UNL353      0.0521
   2118 H           7.5770   18.8269    1.7896 H     353  UNL353      0.2090
   2119 O          10.2714   18.0558    4.7234 O.3   354  UNL354     -0.3982
   2120 C           8.8556   18.0558    4.7234 C.3   354  UNL354      0.0330
   2121 H           8.4903   19.0486    4.4493 H     354  UNL354      0.0521
   2122 H           8.4904   17.7828    5.7165 H     354  UNL354      0.0521
   2123 H           8.5003   17.3248    3.9934 H     354  UNL354      0.0521
   2124 H          10.5571   18.7134    5.3803 H     354  UNL354      0.2090
   2125 O           8.4714   18.3078    7.6074 O.3   355  UNL355     -0.3982
   2126 C           7.0556   18.3078    7.6074 C.3   355  UNL355      0.0330
   2127 H           6.6903   17.5388    8.2926 H     355  UNL355      0.0521
   2128 H           6.6904   18.1131    6.5961 H     355  UNL355      0.0521
   2129 H           6.7003   19.2864    7.9386 H     355  UNL355      0.0521
   2130 H           8.7571   17.4274    7.3094 H     355  UNL355      0.2090
   2131 O           8.4714   18.3078   10.3350 O.3   356  UNL356     -0.3982
   2132 C           7.0556   18.3078   10.3350 C.3   356  UNL356      0.0330
   2133 H           6.6903   17.5388   11.0202 H     356  UNL356      0.0521
   2134 H           6.6904   18.1131    9.3237 H     356  UNL356      0.0521
   2135 H           6.7003   19.2864   10.6662 H     356  UNL356      0.0521
   2136 H           8.7571   17.4274   10.0370 H     356  UNL356      0.2090
   2137 O           8.8714   18.0126   13.0338 O.3   357  UNL357     -0.3982
   2138 C           7.4556   18.0126   13.0338 C.3   357  UNL357      0.0330
   2139 H           7.0903   18.3989   12.0790 H     357  UNL357      0.0521
   2140 H           7.0904   18.6347   13.8545 H     357  UNL357      0.0521
   2141 H           7.1003   16.9884   13.1698 H     357  UNL357      0.0521
   2142 H           9.1571   18.9339   12.9114 H     357  UNL357      0.2090
   2143 O          10.2714   18.0558   15.6336 O.3   358  UNL358     -0.3982
   2144 C           8.8556   18.0558   15.6336 C.3   358  UNL358      0.0330
   2145 H           8.4903   19.0486   15.3595 H     358  UNL358      0.0521
   2146 H           8.4904   17.7828   16.6267 H     358  UNL358      0.0521
   2147 H           8.5003   17.3248   14.9036 H     358  UNL358      0.0521
   2148 H          10.5571   18.7134   16.2905 H     358  UNL358      0.2090
   2149 O           8.2714   18.1535   18.3169 O.3   359  UNL359     -0.3982
   2150 C           6.8556   18.1535   18.3169 C.3   359  UNL359      0.0330
   2151 H           6.4903   19.0806   18.7654 H     359  UNL359      0.0521
   2152 H           6.4904   17.2935   18.8835 H     359  UNL359      0.0521
   2153 H           6.5003   18.0853   17.2860 H     359  UNL359      0.0521
   2154 H           8.5571   18.2148   19.2443 H     359  UNL359      0.2090
   2155 O           8.0034   17.4380   22.2452 O.3   360  UNL360     -0.3982
   2156 C           7.0840   18.5147   22.2452 C.3   360  UNL360      0.0330
   2157 H           6.2620   18.2931   22.9304 H     360  UNL360      0.0521
   2158 H           6.6988   18.6659   21.2339 H     360  UNL360      0.0521
   2159 H           7.5974   19.4203   22.5764 H     360  UNL360      0.0521
   2160 H           7.5195   16.6490   21.9472 H     360  UNL360      0.2090
   2161 O          10.2714   20.8528   -0.6339 O.3   361  UNL361     -0.3982
   2162 C           8.8556   20.8528   -0.6339 C.3   361  UNL361      0.0330
   2163 H           8.4903   21.4185   -1.4947 H     361  UNL361      0.0521
   2164 H           8.4904   21.3025    0.2927 H     361  UNL361      0.0521
   2165 H           8.5003   19.8219   -0.7007 H     361  UNL361      0.0521
   2166 H          10.5571   21.7804   -0.5737 H     361  UNL361      0.2090
   2167 O           8.2714   21.1491    2.1523 O.3   362  UNL362     -0.3982
   2168 C           6.8556   21.1491    2.1523 C.3   362  UNL362      0.0330
   2169 H           6.4903   20.3801    2.8375 H     362  UNL362      0.0521
   2170 H           6.4904   20.9544    1.1410 H     362  UNL362      0.0521
   2171 H           6.5003   22.1277    2.4835 H     362  UNL362      0.0521
   2172 H           8.5571   20.2687    1.8543 H     362  UNL362      0.2090
   2173 O          10.0992   20.4030    4.8799 O.3   363  UNL363     -0.3982
   2174 C           9.0347   21.3365    4.8799 C.3   363  UNL363      0.0330
   2175 H           8.2530   20.9993    5.5651 H     363  UNL363      0.0521
   2176 H           8.6318   21.4309    3.8686 H     363  UNL363      0.0521
   2177 H           9.4129   22.3065    5.2111 H     363  UNL363      0.0521
   2178 H           9.7334   19.5527    4.5819 H     363  UNL363      0.2090
   2179 O           8.2714   21.1454    7.5002 O.3   364  UNL364     -0.3982
   2180 C           6.8556   21.1454    7.5002 C.3   364  UNL364      0.0330
   2181 H           6.4903   21.0191    8.5224 H     364  UNL364      0.0521
   2182 H           6.4904   20.3322    6.8683 H     364  UNL364      0.0521
   2183 H           6.5003   22.0996    7.1039 H     364  UNL364      0.0521
   2184 H           8.5571   20.2871    7.8567 H     364  UNL364      0.2090
   2185 O           9.6529   21.8663   10.6448 O.3   365  UNL365     -0.3982
   2186 C           8.7004   20.9778   10.0900 C.3   365  UNL365      0.0330
   2187 H           9.2122   20.1051    9.6768 H     365  UNL365      0.0521
   2188 H           8.1379   21.4891    9.3050 H     365  UNL365      0.0521
   2189 H           8.0139   20.6563   10.8767 H     365  UNL365      0.0521
   2190 H          10.2477   22.1343    9.9236 H     365  UNL365      0.2090
   2191 O           8.1763   20.6743   13.3449 O.3   366  UNL366     -0.3982
   2192 C           6.9901   21.2691   12.8514 C.3   366  UNL366      0.0330
   2193 H           6.2773   21.3963   13.6700 H     366  UNL366      0.0521
   2194 H           6.5590   20.6336   12.0741 H     366  UNL366      0.0521
   2195 H           7.2326   22.2462   12.4271 H     366  UNL366      0.0521
   2196 H           7.9298   19.8094   13.7148 H     366  UNL366      0.2090
   2197 O           8.8714   21.1491   15.7901 O.3   367  UNL367     -0.3982
   2198 C           7.4556   21.1491   15.7901 C.3   367  UNL367      0.0330
   2199 H           7.0903   20.3801   16.4753 H     367  UNL367      0.0521
   2200 H           7.0904   20.9544   14.7788 H     367  UNL367      0.0521
   2201 H           7.1003   22.1277   16.1213 H     367  UNL367      0.0521
   2202 H           9.1571   20.2687   15.4921 H     367  UNL367      0.2090
   2203 O           9.8814   20.9144   19.2353 O.3   368  UNL368     -0.3982
   2204 C           9.1014   20.8826   18.0542 C.3   368  UNL368      0.0330
   2205 H           8.8449   19.8479   17.8135 H     368  UNL368      0.0521
   2206 H           9.6652   21.3302   17.2321 H     368  UNL368      0.0521
   2207 H           8.1849   21.4542   18.2182 H     368  UNL368      0.0521
   2208 H          10.6873   20.3995   19.0594 H     368  UNL368      0.2090
   2209 O           8.6939   21.7113   20.5375 O.3   369  UNL369     -0.3982
   2210 C           9.4343   20.9506   21.4742 C.3   369  UNL369      0.0330
   2211 H          10.0818   20.2478   20.9439 H     369  UNL369      0.0521
   2212 H           8.7476   20.4076   22.1281 H     369  UNL369      0.0521
   2213 H          10.0481   21.6262   22.0746 H     369  UNL369      0.0521
   2214 H           8.1594   21.0853   20.0198 H     369  UNL369      0.2090
   2215 O          10.2714   23.9224   -0.4922 O.3   370  UNL370     -0.3982
   2216 C           8.8556   23.9224   -0.4922 C.3   370  UNL370      0.0330
   2217 H           8.4903   22.8924   -0.4842 H     370  UNL370      0.0521
   2218 H           8.4904   24.4428   -1.3809 H     370  UNL370      0.0521
   2219 H           8.5003   24.4397    0.4020 H     370  UNL370      0.0521
   2220 H          10.5571   23.4570   -1.2968 H     370  UNL370      0.2090
   2221 O           8.7215   23.0529    1.5282 O.3   371  UNL371     -0.3982
   2222 C           9.1534   24.1303    2.3389 C.3   371  UNL371      0.0330
   2223 H           9.6495   24.8795    1.7169 H     371  UNL371      0.0521
   2224 H           9.8428   23.7600    3.1016 H     371  UNL371      0.0521
   2225 H           8.2842   24.5804    2.8243 H     371  UNL371      0.0521
   2226 H           9.5138   22.6737    1.1111 H     371  UNL371      0.2090
   2227 O          10.2714   23.7384    4.7234 O.3   372  UNL372     -0.3982
   2228 C           8.8556   23.7384    4.7234 C.3   372  UNL372      0.0330
   2229 H           8.4903   24.7312    4.4493 H     372  UNL372      0.0521
   2230 H           8.4904   23.4654    5.7165 H     372  UNL372      0.0521
   2231 H           8.5003   23.0074    3.9934 H     372  UNL372      0.0521
   2232 H          10.5571   24.3960    5.3803 H     372  UNL372      0.2090
   2233 O           8.4714   23.9904    7.6074 O.3   373  UNL373     -0.3982
   2234 C           7.0556   23.9904    7.6074 C.3   373  UNL373      0.0330
   2235 H           6.6903   23.2214    8.2926 H     373  UNL373      0.0521
   2236 H           6.6904   23.7957    6.5961 H     373  UNL373      0.0521
   2237 H           6.7003   24.9690    7.9386 H     373  UNL373      0.0521
   2238 H           8.7571   23.1100    7.3094 H     373  UNL373      0.2090
   2239 O           7.9719   23.9904   11.0332 O.3   374  UNL374     -0.3982
   2240 C           6.9074   23.9904   10.0996 C.3   374  UNL374      0.0330
   2241 H           6.1810   23.2214   10.3739 H     374  UNL374      0.0521
   2242 H           7.2997   23.7957    9.0985 H     374  UNL374      0.0521
   2243 H           6.4219   24.9690   10.1143 H     374  UNL374      0.0521
   2244 H           8.3831   23.1100   10.9975 H     374  UNL374      0.2090
   2245 O           9.7493   23.7983   13.9481 O.3   375  UNL375     -0.3982
   2246 C           8.9231   24.0068   12.8175 C.3   375  UNL375      0.0330
   2247 H           8.3708   23.0905   12.5946 H     375  UNL375      0.0521
   2248 H           9.5402   24.2903   11.9615 H     375  UNL375      0.0521
   2249 H           8.2169   24.8110   13.0369 H     375  UNL375      0.0521
   2250 H          10.3648   23.0798   13.7236 H     375  UNL375      0.2090
   2251 O           8.0664   23.6425   15.0109 O.3   376  UNL376     -0.3982
   2252 C           9.3360   23.7324   15.6309 C.3   376  UNL376      0.0330
   2253 H           9.2095   23.7998   16.7143 H     376  UNL376      0.0521
   2254 H           9.8623   24.6149   15.2592 H     376  UNL376      0.0521
   2255 H           9.9139   22.8374   15.3887 H     376  UNL376      0.0521
   2256 H           7.5770   24.4498   15.2436 H     376  UNL376      0.2090
   2257 O          10.2714   23.7086   18.4034 O.3   377  UNL377     -0.3982
   2258 C           8.8556   23.7086   18.4034 C.3   377  UNL377      0.0330
   2259 H           8.4903   24.5527   17.8132 H     377  UNL377      0.0521
   2260 H           8.4904   23.7833   19.4306 H     377  UNL377      0.0521
   2261 H           8.5003   22.7756   17.9597 H     377  UNL377      0.0521
   2262 H          10.5571   24.5479   18.8026 H     377  UNL377      0.2090
   2263 O          10.0610   23.8146   20.9397 O.3   378  UNL378     -0.3982
   2264 C           8.9966   23.6806   21.8635 C.3   378  UNL378      0.0330
   2265 H           8.0453   23.6689   21.3257 H     378  UNL378      0.0521
   2266 H           9.0182   24.5147   22.5691 H     378  UNL378      0.0521
   2267 H           9.1157   22.7416   22.4091 H     378  UNL378      0.0521
   2268 H           9.9283   24.6562   20.4710 H     378  UNL378      0.2090
   2269 O           8.4714   26.8317   -0.5752 O.3   379  UNL379     -0.3982
   2270 C           7.0556   26.8317   -0.5752 C.3   379  UNL379      0.0330
   2271 H           6.6903   26.0627    0.1100 H     379  UNL379      0.0521
   2272 H           6.6904   26.6370   -1.5865 H     379  UNL379      0.0521
   2273 H           6.7003   27.8103   -0.2440 H     379  UNL379      0.0521
   2274 H           8.7571   25.9513   -0.8732 H     379  UNL379      0.2090
   2275 O           8.2714   26.8057    2.0076 O.3   380  UNL380     -0.3982
   2276 C           6.8556   26.8057    2.0076 C.3   380  UNL380      0.0330
   2277 H           6.4903   26.9749    3.0235 H     380  UNL380      0.0521
   2278 H           6.4904   25.8465    1.6326 H     380  UNL380      0.0521
   2279 H           6.5003   27.6079    1.3566 H     380  UNL380      0.0521
   2280 H           8.5571   26.0839    2.5932 H     380  UNL380      0.2090
   2281 O           8.1876   26.8317    5.8350 O.3   381  UNL381     -0.3982
   2282 C           7.6119   26.8317    4.5416 C.3   381  UNL381      0.0330
   2283 H           6.8374   26.0627    4.4865 H     381  UNL381      0.0521
   2284 H           8.3873   26.6370    3.7967 H     381  UNL381      0.0521
   2285 H           7.1648   27.8103    4.3517 H     381  UNL381      0.0521
   2286 H           8.5761   25.9513    5.9749 H     381  UNL381      0.2090
   2287 O           8.2714   26.8317    7.6074 O.3   382  UNL382     -0.3982
   2288 C           6.8556   26.8317    7.6074 C.3   382  UNL382      0.0330
   2289 H           6.4903   26.0627    8.2926 H     382  UNL382      0.0521
   2290 H           6.4904   26.6370    6.5961 H     382  UNL382      0.0521
   2291 H           6.5003   27.8103    7.9386 H     382  UNL382      0.0521
   2292 H           8.5571   25.9513    7.3094 H     382  UNL382      0.2090
   2293 O           8.0992   26.1204   10.0785 O.3   383  UNL383     -0.3982
   2294 C           7.0347   26.9682   10.4694 C.3   383  UNL383      0.0330
   2295 H           6.2530   26.3750   10.9504 H     383  UNL383      0.0521
   2296 H           6.6318   27.4774    9.5905 H     383  UNL383      0.0521
   2297 H           7.4129   27.7104   11.1763 H     383  UNL383      0.0521
   2298 H           7.7334   25.4730    9.4519 H     383  UNL383      0.2090
   2299 O           8.4362   26.8317   12.3401 O.3   384  UNL384     -0.3982
   2300 C           7.3718   26.8317   13.2737 C.3   384  UNL384      0.0330
   2301 H           7.5490   26.0627   14.0297 H     384  UNL384      0.0521
   2302 H           6.4304   26.6370   12.7542 H     384  UNL384      0.0521
   2303 H           7.3231   27.8103   13.7569 H     384  UNL384      0.0521
   2304 H           8.4545   25.9513   11.9277 H     384  UNL384      0.2090
   2305 O           8.2714   26.8317   15.7901 O.3   385  UNL385     -0.3982
   2306 C           6.8556   26.8317   15.7901 C.3   385  UNL385      0.0330
   2307 H           6.4903   26.0627   16.4753 H     385  UNL385      0.0521
   2308 H           6.4904   26.6370   14.7788 H     385  UNL385      0.0521
   2309 H           6.5003   27.8103   16.1213 H     385  UNL385      0.0521
   2310 H           8.5571   25.9513   15.4921 H     385  UNL385      0.2090
   2311 O           7.9074   26.5863   19.2841 O.3   386  UNL386     -0.3982
   2312 C           6.8486   26.7719   18.3627 C.3   386  UNL386      0.0330
   2313 H           6.6425   25.8299   17.8484 H     386  UNL386      0.0521
   2314 H           7.1255   27.5418   17.6384 H     386  UNL386      0.0521
   2315 H           5.9561   27.0904   18.9064 H     386  UNL386      0.0521
   2316 H           8.6849   26.3042   18.7728 H     386  UNL386      0.2090
   2317 O           8.2673   26.8317   21.0901 O.3   387  UNL387     -0.3982
   2318 C           6.8661   26.8317   21.2933 C.3   387  UNL387      0.0330
   2319 H           6.6029   26.0627   22.0238 H     387  UNL387      0.0521
   2320 H           6.3596   26.6370   20.3448 H     387  UNL387      0.0521
   2321 H           6.5620   27.8103   21.6720 H     387  UNL387      0.0521
   2322 H           8.5072   25.9513   20.7542 H     387  UNL387      0.2090
   2323 O          10.0714   29.5810   -0.6612 O.3   388  UNL388     -0.3982
   2324 C           8.6556   29.5810   -0.6612 C.3   388  UNL388      0.0330
   2325 H           8.2903   30.2931   -1.4054 H     388  UNL388      0.0521
   2326 H           8.2904   29.8556    0.3314 H     388  UNL388      0.0521
   2327 H           8.3003   28.5792   -0.9135 H     388  UNL388      0.0521
   2328 H          10.3571   30.4824   -0.4342 H     388  UNL388      0.2090
   2329 O           8.1107   29.5062    2.1994 O.3   389  UNL389     -0.3982
   2330 C           9.4983   29.3870    1.9446 C.3   389  UNL389      0.0330
   2331 H          10.0203   29.1403    2.8725 H     389  UNL389      0.0521
   2332 H           9.8775   30.3285    1.5398 H     389  UNL389      0.0521
   2333 H           9.6584   28.5889    1.2158 H     389  UNL389      0.0521
   2334 H           8.0000   30.2213    2.8489 H     389  UNL389      0.2090
   2335 O          10.0714   29.4313    4.7481 O.3   390  UNL390     -0.3982
   2336 C           8.6556   29.4313    4.7481 C.3   390  UNL390      0.0330
   2337 H           8.2903   29.0686    3.7841 H     390  UNL390      0.0521
   2338 H           8.2904   30.4449    4.9303 H     390  UNL390      0.0521
   2339 H           8.3003   28.7702    5.5420 H     390  UNL390      0.0521
   2340 H          10.3571   30.0261    4.0338 H     390  UNL390      0.2090
   2341 O           9.6921   29.8402    8.4744 O.3   391  UNL391     -0.3982
   2342 C           8.9156   29.5819    7.3190 C.3   391  UNL391      0.0330
   2343 H           8.5133   28.5670    7.3687 H     391  UNL391      0.0521
   2344 H           9.5377   29.6955    6.4280 H     391  UNL391      0.0521
   2345 H           8.0906   30.2969    7.2783 H     391  UNL391      0.0521
   2346 H          10.4157   29.1907    8.4833 H     391  UNL391      0.2090
   2347 O           8.0664   29.4033    9.5320 O.3   392  UNL392     -0.3982
   2348 C           9.3360   29.4033   10.1586 C.3   392  UNL392      0.0330
   2349 H           9.2095   29.3145   11.2404 H     392  UNL392      0.0521
   2350 H           9.8623   30.3300    9.9173 H     392  UNL392      0.0521
   2351 H           9.9139   28.5523    9.7905 H     392  UNL392      0.0521
   2352 H           7.5770   30.1689    9.8782 H     392  UNL392      0.2090
   2353 O           9.8087   29.0497   12.5370 O.3   393  UNL393     -0.3982
   2354 C           8.4333   29.2416   12.8126 C.3   393  UNL393      0.0330
   2355 H           8.0865   30.1547   12.3224 H     393  UNL393      0.0521
   2356 H           8.2841   29.3160   13.8926 H     393  UNL393      0.0521
   2357 H           7.8712   28.3877   12.4274 H     393  UNL393      0.0521
   2358 H          10.2814   29.8225   12.8903 H     393  UNL393      0.2090
   2359 O           9.0987   28.9471   16.6119 O.3   394  UNL394     -0.3982
   2360 C           9.2908   29.7504   15.4620 C.3   394  UNL394      0.0330
   2361 H           9.7123   29.1421   14.6578 H     394  UNL394      0.0521
   2362 H           9.9660   30.5755   15.7014 H     394  UNL394      0.0521
   2363 H           8.3259   30.1525   15.1442 H     394  UNL394      0.0521
   2364 H           9.9714   28.6046   16.8702 H     394  UNL394      0.2090
   2365 O           8.1727   29.1559   18.5020 O.3   395  UNL395     -0.3982
   2366 C           9.4423   29.7759   18.5919 C.3   395  UNL395      0.0330
   2367 H           9.7306   30.1619   17.6110 H     395  UNL395      0.0521
   2368 H          10.1799   29.0489   18.9404 H     395  UNL395      0.0521
   2369 H           9.3843   30.6027   19.3037 H     395  UNL395      0.0521
   2370 H           8.2553   28.4269   17.8638 H     395  UNL395      0.2090
   2371 O           9.0651   28.4755   21.4364 O.3   396  UNL396     -0.3982
   2372 C           9.3740   29.7857   20.9977 C.3   396  UNL396      0.0330
   2373 H           9.7127   30.3848   21.8466 H     396  UNL396      0.0521
   2374 H           8.4869   30.2391   20.5488 H     396  UNL396      0.0521
   2375 H          10.1703   29.7321   20.2516 H     396  UNL396      0.0521
   2376 H           8.3561   28.5551   22.0971 H     396  UNL396      0.2090
   2377 O          10.2714   32.2954   -0.7568 O.3   397  UNL397     -0.3982
   2378 C           8.8556   32.2954   -0.7568 C.3   397  UNL397      0.0330
   2379 H           8.4903   33.3254   -0.7521 H     397  UNL397      0.0521
   2380 H           8.4904   31.7639    0.1254 H     397  UNL397      0.0521
   2381 H           8.5003   31.7892   -1.6574 H     397  UNL397      0.0521
   2382 H          10.5571   32.7508    0.0535 H     397  UNL397      0.2090
   2383 O           7.9473   31.8826    2.0332 O.3   398  UNL398     -0.3982
   2384 C           9.2544   32.3671    2.2803 C.3   398  UNL398      0.0330
   2385 H           9.6131   32.9136    1.4045 H     398  UNL398      0.0521
   2386 H           9.9200   31.5281    2.4973 H     398  UNL398      0.0521
   2387 H           9.2273   33.0397    3.1408 H     398  UNL398      0.0521
   2388 H           8.0031   31.2891    1.2650 H     398  UNL398      0.2090
   2389 O          10.2714   32.5218    4.8428 O.3   399  UNL399     -0.3982
   2390 C           8.8556   32.5218    4.8428 C.3   399  UNL399      0.0330
   2391 H           8.4903   31.9456    5.6965 H     399  UNL399      0.0521
   2392 H           8.4904   32.0838    3.9107 H     399  UNL399      0.0521
   2393 H           8.5003   33.5519    4.9224 H     399  UNL399      0.0521
   2394 H          10.5571   31.5951    4.7711 H     399  UNL399      0.2090
   2395 O           8.2714   32.2623    7.4510 O.3   400  UNL400     -0.3982
   2396 C           6.8556   32.2623    7.4510 C.3   400  UNL400      0.0330
   2397 H           6.4903   33.2551    7.1768 H     400  UNL400      0.0521
   2398 H           6.4904   31.9893    8.4440 H     400  UNL400      0.0521
   2399 H           6.5003   31.5313    6.7209 H     400  UNL400      0.0521
   2400 H           8.5571   32.9199    8.1078 H     400  UNL400      0.2090
   2401 O           9.9339   33.1587   10.1661 O.3   401  UNL401     -0.3982
   2402 C           8.8695   32.2636   10.4313 C.3   401  UNL401      0.0330
   2403 H           9.2517   31.3890   10.9635 H     401  UNL401      0.0521
   2404 H           8.4068   31.9572    9.4900 H     401  UNL401      0.0521
   2405 H           8.1263   32.7693   11.0523 H     401  UNL401      0.0521
   2406 H          10.5769   32.6823    9.6138 H     401  UNL401      0.2090
   2407 O           9.7358   31.7754   13.7464 O.3   402  UNL402     -0.3982
   2408 C           9.0270   32.6912   12.9318 C.3   402  UNL402      0.0330
   2409 H           8.0613   32.2615   12.6541 H     402  UNL402      0.0521
   2410 H           9.6116   32.9106   12.0351 H     402  UNL402      0.0521
   2411 H           8.8647   33.6143   13.4932 H     402  UNL402      0.0521
   2412 H           9.8648   30.9669   13.2217 H     402  UNL402      0.2090
   2413 O          10.2714   32.0903   15.6115 O.3   403  UNL403     -0.3982
   2414 C           8.8556   32.0903   15.6115 C.3   403  UNL403      0.0330
   2415 H           8.4903   33.1197   15.5762 H     403  UNL403      0.0521
   2416 H           8.4904   31.5935   16.5136 H     403  UNL403      0.0521
   2417 H           8.5003   31.5495   14.7312 H     403  UNL403      0.0521
   2418 H          10.5571   32.5768   16.4035 H     403  UNL403      0.2090
   2419 O           9.9644   31.9266   17.8413 O.3   404  UNL404     -0.3982
   2420 C           8.9000   32.3175   18.6891 C.3   404  UNL404      0.0330
   2421 H           8.2153   32.9683   18.1395 H     404  UNL404      0.0521
   2422 H           9.3004   32.8437   19.5590 H     404  UNL404      0.0521
   2423 H           8.3638   31.4252   19.0206 H     404  UNL404      0.0521
   2424 H          10.4212   32.7388   17.5633 H     404  UNL404      0.2090
   2425 O          10.2714   32.2335   22.0638 O.3   405  UNL405     -0.3982
   2426 C           8.8556   32.2335   22.0638 C.3   405  UNL405      0.0330
   2427 H           8.4903   32.2929   21.0355 H     405  UNL405      0.0521
   2428 H           8.4904   33.0861   22.6414 H     405  UNL405      0.0521
   2429 H           8.5003   31.3072   22.5214 H     405  UNL405      0.0521
   2430 H          10.5571   33.0668   21.6521 H     405  UNL405      0.2090
   2431 O           9.6709   36.1496    0.1788 O.3   406  UNL406     -0.3982
   2432 C           8.9428   35.0367   -0.3066 C.3   406  UNL406      0.0330
   2433 H           8.3939   34.5722    0.5164 H     406  UNL406      0.0521
   2434 H           9.6322   34.3153   -0.7520 H     406  UNL406      0.0521
   2435 H           8.2358   35.3786   -1.0661 H     406  UNL406      0.0521
   2436 H          10.2895   35.8154    0.8505 H     406  UNL406      0.2090
   2437 O           8.3323   35.1711    3.8937 O.3   407  UNL407     -0.3982
   2438 C           9.5310   35.0805    3.1458 C.3   407  UNL407      0.0330
   2439 H          10.0469   36.0438    3.1645 H     407  UNL407      0.0521
   2440 H           9.2985   34.7996    2.1158 H     407  UNL407      0.0521
   2441 H          10.1722   34.3175    3.5933 H     407  UNL407      0.0521
   2442 H           7.7842   35.8553    3.4732 H     407  UNL407      0.2090
   2443 O           9.4431   35.4768    7.3839 O.3   408  UNL408     -0.3982
   2444 C           9.2387   34.9748    6.0759 C.3   408  UNL408      0.0330
   2445 H           9.5691   35.7164    5.3443 H     408  UNL408      0.0521
   2446 H           8.1787   34.7521    5.9317 H     408  UNL408      0.0521
   2447 H           9.8214   34.0590    5.9517 H     408  UNL408      0.0521
   2448 H           8.9140   36.2887    7.4642 H     408  UNL408      0.2090
   2449 O          10.0714   35.0658   10.2412 O.3   409  UNL409     -0.3982
   2450 C           8.6556   35.0658   10.2412 C.3   409  UNL409      0.0330
   2451 H           8.2903   35.8165    9.5359 H     409  UNL409      0.0521
   2452 H           8.2904   35.2872   11.2470 H     409  UNL409      0.0521
   2453 H           8.3003   34.0788    9.9359 H     409  UNL409      0.0521
   2454 H          10.3571   35.9538   10.5158 H     409  UNL409      0.2090
   2455 O           9.2283   37.3331   13.5906 O.3   410  UNL410     -0.3982
   2456 C           9.1521   36.2499   12.6820 C.3   410  UNL410      0.0330
   2457 H           8.3289   35.5905   12.9680 H     410  UNL410      0.0521
   2458 H          10.0953   35.6982   12.6916 H     410  UNL410      0.0521
   2459 H           8.9713   36.6405   11.6779 H     410  UNL410      0.0521
   2460 H           9.3892   36.9557   14.4722 H     410  UNL410      0.2090
   2461 O          10.0714   35.3528   15.7976 O.3   411  UNL411     -0.3982
   2462 C           8.6556   35.3528   15.7976 C.3   411  UNL411      0.0330
   2463 H           8.2903   34.5487   16.4413 H     411  UNL411      0.0521
   2464 H           8.2904   35.2117   14.7775 H     411  UNL411      0.0521
   2465 H           8.3003   36.3125   16.1800 H     411  UNL411      0.0521
   2466 H          10.3571   34.4893   15.4536 H     411  UNL411      0.2090
   2467 O           8.4153   37.3436   18.6704 O.3   412  UNL412     -0.3982
   2468 C           9.4496   36.4816   18.2326 C.3   412  UNL412      0.0330
   2469 H           9.0798   35.4536   18.2018 H     412  UNL412      0.0521
   2470 H          10.2992   36.5541   18.9159 H     412  UNL412      0.0521
   2471 H           9.7637   36.7836   17.2308 H     412  UNL412      0.0521
   2472 H           8.1575   37.0512   19.5612 H     412  UNL412      0.2090
   2473 O           8.7732   34.3542   20.6751 O.3   413  UNL413     -0.3982
   2474 C           9.3162   35.3555   21.5160 C.3   413  UNL413      0.0330
   2475 H           8.6568   36.2270   21.5191 H     413  UNL413      0.0521
   2476 H          10.3083   35.6371   21.1549 H     413  UNL413      0.0521
   2477 H           9.3990   34.9604   22.5312 H     413  UNL413      0.0521
   2478 H           8.7117   34.7337   19.7819 H     413  UNL413      0.2090
   2479 O          11.9165    1.2600   -0.5752 O.3   414  UNL414     -0.3982
   2480 C          10.5007    1.2600   -0.5752 C.3   414  UNL414      0.0330
   2481 H          10.1354    0.4910    0.1100 H     414  UNL414      0.0521
   2482 H          10.1355    1.0653   -1.5865 H     414  UNL414      0.0521
   2483 H          10.1454    2.2386   -0.2440 H     414  UNL414      0.0521
   2484 H          12.2022    0.3796   -0.8732 H     414  UNL414      0.2090
   2485 O          11.4941    1.4169    1.6567 O.3   415  UNL415     -0.3982
   2486 C          12.7638    0.9400    2.0630 C.3   415  UNL415      0.0330
   2487 H          12.6448    0.2616    2.9115 H     415  UNL415      0.0521
   2488 H          13.3982    1.7841    2.3439 H     415  UNL415      0.0521
   2489 H          13.2241    0.4020    1.2310 H     415  UNL415      0.0521
   2490 H          11.1104    1.8895    2.4150 H     415  UNL415      0.2090
   2491 O          13.5165    1.2600    4.8799 O.3   416  UNL416     -0.3982
   2492 C          12.1007    1.2600    4.8799 C.3   416  UNL416      0.0330
   2493 H          11.7354    0.4910    5.5651 H     416  UNL416      0.0521
   2494 H          11.7355    1.0653    3.8686 H     416  UNL416      0.0521
   2495 H          11.7454    2.2386    5.2111 H     416  UNL416      0.0521
   2496 H          13.8022    0.3796    4.5819 H     416  UNL416      0.2090
   2497 O          13.2605    0.8223    6.9082 O.3   417  UNL417     -0.3982
   2498 C          12.3305    1.2901    7.8678 C.3   417  UNL417      0.0330
   2499 H          11.8051    0.4408    8.3116 H     417  UNL417      0.0521
   2500 H          11.6165    1.9630    7.3866 H     417  UNL417      0.0521
   2501 H          12.8685    1.8317    8.6493 H     417  UNL417      0.0521
   2502 H          12.7542    0.3463    6.2281 H     417  UNL417      0.2090
   2503 O          11.3674    0.6689    9.6126 O.3   418  UNL418     -0.3982
   2504 C          10.5672    1.3708   10.5461 C.3   418  UNL418      0.0330
   2505 H          10.1933    0.6758   11.3021 H     418  UNL418      0.0521
   2506 H           9.7311    1.8451   10.0266 H     418  UNL418      0.0521
   2507 H          11.1758    2.1386   11.0294 H     418  UNL418      0.0521
   2508 H          10.8006   -0.0050    9.2001 H     418  UNL418      0.2090
   2509 O          11.5165    1.0998   13.1652 O.3   419  UNL419     -0.3982
   2510 C          10.1007    1.0998   13.1652 C.3   419  UNL419      0.0330
   2511 H           9.7354    0.2622   12.5659 H     419  UNL419      0.0521
   2512 H           9.7355    2.0435   12.7526 H     419  UNL419      0.0521
   2513 H           9.7454    0.9922   14.1927 H     419  UNL419      0.0521
   2514 H          11.8022    1.1967   12.2408 H     419  UNL419      0.2090
   2515 O          13.5165    1.0080   15.6336 O.3   420  UNL420     -0.3982
   2516 C          12.1007    1.0080   15.6336 C.3   420  UNL420      0.0330
   2517 H          11.7354    2.0008   15.3595 H     420  UNL420      0.0521
   2518 H          11.7355    0.7350   16.6267 H     420  UNL420      0.0521
   2519 H          11.7454    0.2770   14.9036 H     420  UNL420      0.0521
   2520 H          13.8022    1.6656   16.2905 H     420  UNL420      0.2090
   2521 O          11.4644    0.9648   18.9275 O.3   421  UNL421     -0.3982
   2522 C          12.7340    0.9648   18.3010 C.3   421  UNL421      0.0330
   2523 H          13.4841    1.3511   18.9955 H     421  UNL421      0.0521
   2524 H          12.6983    1.5869   17.4034 H     421  UNL421      0.0521
   2525 H          12.9924   -0.0594   18.0218 H     421  UNL421      0.0521
   2526 H          11.2623    1.8861   19.1637 H     421  UNL421      0.2090
   2527 O          11.5165    1.2600   22.2452 O.3   422  UNL422     -0.3982
   2528 C          10.1007    1.2600   22.2452 C.3   422  UNL422      0.0330
   2529 H           9.7354    0.4910   22.9304 H     422  UNL422      0.0521
   2530 H           9.7355    1.0653   21.2339 H     422  UNL422      0.0521
   2531 H           9.7454    2.2386   22.5764 H     422  UNL422      0.0521
   2532 H          11.8022    0.3796   21.9472 H     422  UNL422      0.2090
   2533 O          13.5165    4.1013   -0.5752 O.3   423  UNL423     -0.3982
   2534 C          12.1007    4.1013   -0.5752 C.3   423  UNL423      0.0330
   2535 H          11.7354    3.3323    0.1100 H     423  UNL423      0.0521
   2536 H          11.7355    3.9066   -1.5865 H     423  UNL423      0.0521
   2537 H          11.7454    5.0799   -0.2440 H     423  UNL423      0.0521
   2538 H          13.8022    3.2209   -0.8732 H     423  UNL423      0.2090
   2539 O          11.4094    4.2503    1.9112 O.3   424  UNL424     -0.3982
   2540 C          12.6790    3.7793    2.3243 C.3   424  UNL424      0.0330
   2541 H          13.3469    4.6280    2.4913 H     424  UNL424      0.0521
   2542 H          13.0927    3.1222    1.5554 H     424  UNL424      0.0521
   2543 H          12.5646    3.2197    3.2556 H     424  UNL424      0.0521
   2544 H          11.5428    4.7424    1.0832 H     424  UNL424      0.2090
   2545 O          11.4948    4.1013    4.3106 O.3   425  UNL425     -0.3982
   2546 C          12.7645    4.1013    4.9371 C.3   425  UNL425      0.0330
   2547 H          13.3953    3.3323    4.4843 H     425  UNL425      0.0521
   2548 H          12.6444    3.9066    6.0056 H     425  UNL425      0.0521
   2549 H          13.2297    5.0799    4.7973 H     425  UNL425      0.0521
   2550 H          11.1068    3.2209    4.4514 H     425  UNL425      0.2090
   2551 O          13.5165    3.8493    7.4510 O.3   426  UNL426     -0.3982
   2552 C          12.1007    3.8493    7.4510 C.3   426  UNL426      0.0330
   2553 H          11.7354    4.8421    7.1768 H     426  UNL426      0.0521
   2554 H          11.7355    3.5763    8.4440 H     426  UNL426      0.0521
   2555 H          11.7454    3.1183    6.7209 H     426  UNL426      0.0521
   2556 H          13.8022    4.5069    8.1078 H     426  UNL426      0.2090
   2557 O          13.2509    4.4070   11.0652 O.3   427  UNL427     -0.3982
   2558 C          12.4744    3.9943    9.9556 C.3   427  UNL427      0.0330
   2559 H          11.4656    3.7401   10.2901 H     427  UNL427      0.0521
   2560 H          12.9430    3.1270    9.4843 H     427  UNL427      0.0521
   2561 H          12.4213    4.8136    9.2347 H     427  UNL427      0.0521
   2562 H          13.2802    3.6601   11.6871 H     427  UNL427      0.2090
   2563 O          12.6569    2.8984   13.3388 O.3   428  UNL428     -0.3982
   2564 C          12.2134    4.2420   13.2884 C.3   428  UNL428      0.0330
   2565 H          12.0225    4.5250   12.2503 H     428  UNL428      0.0521
   2566 H          12.9756    4.8947   13.7209 H     428  UNL428      0.0521
   2567 H          11.2895    4.3331   13.8644 H     428  UNL428      0.0521
   2568 H          13.4775    2.8488   12.8195 H     428  UNL428      0.2090
   2569 O          13.2668    4.6488   15.8834 O.3   429  UNL429     -0.3982
   2570 C          12.0843    3.9078   15.6441 C.3   429  UNL429      0.0330
   2571 H          11.7700    3.4134   16.5666 H     429  UNL429      0.0521
   2572 H          12.2704    3.1647   14.8649 H     429  UNL429      0.0521
   2573 H          11.2982    4.5905   15.3131 H     429  UNL429      0.0521
   2574 H          13.9457    4.0169   16.1755 H     429  UNL429      0.2090
   2575 O          13.5165    3.8050   18.4590 O.3   430  UNL430     -0.3982
   2576 C          12.1007    3.8050   18.4590 C.3   430  UNL430      0.0330
   2577 H          11.7354    4.3707   17.5982 H     430  UNL430      0.0521
   2578 H          11.7355    4.2547   19.3855 H     430  UNL430      0.0521
   2579 H          11.7454    2.7741   18.3921 H     430  UNL430      0.0521
   2580 H          13.8022    4.7326   18.5191 H     430  UNL430      0.2090
   2581 O          13.0884    4.1798   22.6404 O.3   431  UNL431     -0.3982
   2582 C          12.1333    3.7875   21.6717 C.3   431  UNL431      0.0330
   2583 H          12.6247    3.2026   20.8903 H     431  UNL431      0.0521
   2584 H          11.6670    4.6756   21.2382 H     431  UNL431      0.0521
   2585 H          11.3679    3.1758   22.1549 H     431  UNL431      0.0521
   2586 H          13.7542    4.7208   22.1825 H     431  UNL431      0.2090
   2587 O          12.8934    5.9503   -1.2035 O.3   432  UNL432     -0.3982
   2588 C          11.9585    6.8413   -0.6232 C.3   432  UNL432      0.0330
   2589 H          12.4908    7.6448   -0.1081 H     432  UNL432      0.0521
   2590 H          11.3257    6.2979    0.0826 H     432  UNL432      0.0521
   2591 H          11.3362    7.2676   -1.4136 H     432  UNL432      0.0521
   2592 H          13.4308    5.5881   -0.4785 H     432  UNL432      0.2090
   2593 O          13.5165    6.9426    2.1523 O.3   433  UNL433     -0.3982
   2594 C          12.1007    6.9426    2.1523 C.3   433  UNL433      0.0330
   2595 H          11.7354    6.1736    2.8375 H     433  UNL433      0.0521
   2596 H          11.7355    6.7479    1.1410 H     433  UNL433      0.0521
   2597 H          11.7454    7.9212    2.4835 H     433  UNL433      0.0521
   2598 H          13.8022    6.0622    1.8543 H     433  UNL433      0.2090
   2599 O          13.5165    6.6474    4.8511 O.3   434  UNL434     -0.3982
   2600 C          12.1007    6.6474    4.8511 C.3   434  UNL434      0.0330
   2601 H          11.7354    7.0337    3.8964 H     434  UNL434      0.0521
   2602 H          11.7355    7.2695    5.6718 H     434  UNL434      0.0521
   2603 H          11.7454    5.6232    4.9872 H     434  UNL434      0.0521
   2604 H          13.8022    7.5687    4.7288 H     434  UNL434      0.2090
   2605 O          11.7165    6.9426    7.6074 O.3   435  UNL435     -0.3982
   2606 C          10.3007    6.9426    7.6074 C.3   435  UNL435      0.0330
   2607 H           9.9354    6.1736    8.2926 H     435  UNL435      0.0521
   2608 H           9.9355    6.7479    6.5961 H     435  UNL435      0.0521
   2609 H           9.9454    7.9212    7.9386 H     435  UNL435      0.0521
   2610 H          12.0022    6.0622    7.3094 H     435  UNL435      0.2090
   2611 O          11.3418    6.5251    9.7437 O.3   436  UNL436     -0.3982
   2612 C          10.2774    7.0232   10.5332 C.3   436  UNL436      0.0330
   2613 H           9.9195    6.2365   11.2020 H     436  UNL436      0.0521
   2614 H           9.4666    7.3600    9.8827 H     436  UNL436      0.0521
   2615 H          10.6394    7.8661   11.1266 H     436  UNL436      0.0521
   2616 H          10.9906    5.7788    9.2287 H     436  UNL436      0.2090
   2617 O          13.5165    6.9426   13.0625 O.3   437  UNL437     -0.3982
   2618 C          12.1007    6.9426   13.0625 C.3   437  UNL437      0.0330
   2619 H          11.7354    6.1736   13.7477 H     437  UNL437      0.0521
   2620 H          11.7355    6.7479   12.0512 H     437  UNL437      0.0521
   2621 H          11.7454    7.9212   13.3937 H     437  UNL437      0.0521
   2622 H          13.8022    6.0622   12.7645 H     437  UNL437      0.2090
   2623 O          13.5165    6.6518   15.7828 O.3   438  UNL438     -0.3982
   2624 C          12.1007    6.6518   15.7828 C.3   438  UNL438      0.0330
   2625 H          11.7354    6.8972   14.7824 H     438  UNL438      0.0521
   2626 H          11.7355    7.3852   16.5057 H     438  UNL438      0.0521
   2627 H          11.7454    5.6578   16.0644 H     438  UNL438      0.0521
   2628 H          13.8022    7.5461   15.5295 H     438  UNL438      0.2090
   2629 O          12.1410    5.7948   18.1726 O.3   439  UNL439     -0.3982
   2630 C          12.3503    7.1135   18.6437 C.3   439  UNL439      0.0330
   2631 H          12.5276    7.7803   17.7962 H     439  UNL439      0.0521
   2632 H          13.2095    7.1282   19.3186 H     439  UNL439      0.0521
   2633 H          11.4598    7.4433   19.1838 H     439  UNL439      0.0521
   2634 H          12.9472    5.5297   17.6980 H     439  UNL439      0.2090
   2635 O          13.5165    6.7511   22.0516 O.3   440  UNL440     -0.3982
   2636 C          12.1007    6.7511   22.0516 C.3   440  UNL440      0.0330
   2637 H          11.7354    7.7603   22.2576 H     440  UNL440      0.0521
   2638 H          11.7355    6.0574   22.8128 H     440  UNL440      0.0521
   2639 H          11.7454    6.4308   21.0694 H     440  UNL440      0.0521
   2640 H          13.8022    7.0392   22.9353 H     440  UNL440      0.2090
   2641 O          12.7165    9.7429   -0.7360 O.3   441  UNL441     -0.3982
   2642 C          11.3007    9.7429   -0.7360 C.3   441  UNL441      0.0330
   2643 H          10.9354   10.0561    0.2452 H     441  UNL441      0.0521
   2644 H          10.9355    8.7398   -0.9694 H     441  UNL441      0.0521
   2645 H          10.9454   10.4434   -1.4953 H     441  UNL441      0.0521
   2646 H          13.0022    9.1126   -0.0528 H     441  UNL441      0.2090
   2647 O          11.5165    9.7276    2.2278 O.3   442  UNL442     -0.3982
   2648 C          10.1007    9.7276    2.2278 C.3   442  UNL442      0.0330
   2649 H           9.7354    8.7026    2.3297 H     442  UNL442      0.0521
   2650 H           9.7355   10.1649    1.2954 H     442  UNL442      0.0521
   2651 H           9.7454   10.3242    3.0713 H     442  UNL442      0.0521
   2652 H          11.8022    9.1908    1.4690 H     442  UNL442      0.2090
   2653 O          13.5165    9.5319    4.7234 O.3   443  UNL443     -0.3982
   2654 C          12.1007    9.5319    4.7234 C.3   443  UNL443      0.0330
   2655 H          11.7354   10.5247    4.4493 H     443  UNL443      0.0521
   2656 H          11.7355    9.2589    5.7165 H     443  UNL443      0.0521
   2657 H          11.7454    8.8009    3.9934 H     443  UNL443      0.0521
   2658 H          13.8022   10.1895    5.3803 H     443  UNL443      0.2090
   2659 O          12.1165    9.7839    7.6074 O.3   444  UNL444     -0.3982
   2660 C          10.7007    9.7839    7.6074 C.3   444  UNL444      0.0330
   2661 H          10.3354    9.0149    8.2926 H     444  UNL444      0.0521
   2662 H          10.3355    9.5892    6.5961 H     444  UNL444      0.0521
   2663 H          10.3454   10.7625    7.9386 H     444  UNL444      0.0521
   2664 H          12.4022    8.9035    7.3094 H     444  UNL444      0.2090
   2665 O          11.3165    9.7839   10.3350 O.3   445  UNL445     -0.3982
   2666 C           9.9007    9.7839   10.3350 C.3   445  UNL445      0.0330
   2667 H           9.5354    9.0149   11.0202 H     445  UNL445      0.0521
   2668 H           9.5355    9.5892    9.3237 H     445  UNL445      0.0521
   2669 H           9.5454   10.7625   10.6662 H     445  UNL445      0.0521
   2670 H          11.6022    8.9035   10.0370 H     445  UNL445      0.2090
   2671 O          11.0551   10.4191   13.4571 O.3   446  UNL446     -0.3982
   2672 C          10.1672    9.3910   13.0584 C.3   446  UNL446      0.0330
   2673 H          10.7403    8.5194   12.7326 H     446  UNL446      0.0521
   2674 H           9.5349    9.7504   12.2429 H     446  UNL446      0.0521
   2675 H           9.5392    9.1144   13.9086 H     446  UNL446      0.0521
   2676 H          11.5987   10.6434   12.6827 H     446  UNL446      0.2090
   2677 O          13.5165    9.5319   15.6336 O.3   447  UNL447     -0.3982
   2678 C          12.1007    9.5319   15.6336 C.3   447  UNL447      0.0330
   2679 H          11.7354   10.5247   15.3595 H     447  UNL447      0.0521
   2680 H          11.7355    9.2589   16.6267 H     447  UNL447      0.0521
   2681 H          11.7454    8.8009   14.9036 H     447  UNL447      0.0521
   2682 H          13.8022   10.1895   16.2905 H     447  UNL447      0.2090
   2683 O          11.2388    8.9291   18.6677 O.3   448  UNL448     -0.3982
   2684 C          10.3272    9.9936   18.4662 C.3   448  UNL448      0.0330
   2685 H           9.4532    9.8521   19.1068 H     448  UNL448      0.0521
   2686 H          10.0230   10.0202   17.4171 H     448  UNL448      0.0521
   2687 H          10.8175   10.9349   18.7252 H     448  UNL448      0.0521
   2688 H          10.7758    8.1077   18.4299 H     448  UNL448      0.2090
   2689 O          11.2373   10.0477   22.0516 O.3   449  UNL449     -0.3982
   2690 C           9.9515    9.4550   22.0516 C.3   449  UNL449      0.0330
   2691 H           9.1973   10.2185   22.2576 H     449  UNL449      0.0521
   2692 H           9.9103    8.6721   22.8128 H     449  UNL449      0.0521
   2693 H           9.7630    9.0153   21.0694 H     449  UNL449      0.0521
   2694 H          11.3761   10.4290   22.9353 H     449  UNL449      0.2090
   2695 O          13.3648   13.0077   -0.4018 O.3   450  UNL450     -0.3982
   2696 C          12.0858   12.5008   -0.7360 C.3   450  UNL450      0.0330
   2697 H          11.6513   12.0029    0.1344 H     450  UNL450      0.0521
   2698 H          12.1780   11.7946   -1.5648 H     450  UNL450      0.0521
   2699 H          11.4424   13.3307   -1.0373 H     450  UNL450      0.0521
   2700 H          13.9131   12.2488   -0.1388 H     450  UNL450      0.2090
   2701 O          13.1368   12.4668    2.7182 O.3   451  UNL451     -0.3982
   2702 C          12.0724   12.6008    1.7943 C.3   451  UNL451      0.0330
   2703 H          11.2168   13.0685    2.2879 H     451  UNL451      0.0521
   2704 H          11.7930   11.6154    1.4136 H     451  UNL451      0.0521
   2705 H          12.3999   13.2304    0.9637 H     451  UNL451      0.0521
   2706 H          12.8165   11.9036    3.4433 H     451  UNL451      0.2090
   2707 O          13.5165   12.6167    4.9001 O.3   452  UNL452     -0.3982
   2708 C          12.1007   12.6167    4.9001 C.3   452  UNL452      0.0330
   2709 H          11.7354   11.7573    5.4678 H     452  UNL452      0.0521
   2710 H          11.7355   12.5691    3.8713 H     452  UNL452      0.0521
   2711 H          11.7454   13.5376    5.3683 H     452  UNL452      0.0521
   2712 H          13.8022   11.7881    4.4788 H     452  UNL452      0.2090
   2713 O          12.9919   12.2198    6.6586 O.3   453  UNL453     -0.3982
   2714 C          12.2355   12.3652    7.8466 C.3   453  UNL453      0.0330
   2715 H          11.3717   13.0062    7.6535 H     453  UNL453      0.0521
   2716 H          12.8617   12.8046    8.6268 H     453  UNL453      0.0521
   2717 H          11.8905   11.3806    8.1709 H     453  UNL453      0.0521
   2718 H          13.2842   13.1090    6.3954 H     453  UNL453      0.2090
   2719 O          13.5165   12.3692   10.3896 O.3   454  UNL454     -0.3982
   2720 C          12.1007   12.3692   10.3896 C.3   454  UNL454      0.0330
   2721 H          11.7354   12.1341    9.3868 H     454  UNL454      0.0521
   2722 H          11.7355   13.3508   10.7012 H     454  UNL454      0.0521
   2723 H          11.7454   11.6110   11.0915 H     454  UNL454      0.0521
   2724 H          13.8022   13.0512    9.7582 H     454  UNL454      0.2090
   2725 O          13.0319   11.8728   12.3336 O.3   455  UNL455     -0.3982
   2726 C          12.1208   12.5244   13.1996 C.3   455  UNL455      0.0330
   2727 H          11.8749   13.5099   12.7965 H     455  UNL455      0.0521
   2728 H          12.5684   12.6258   14.1912 H     455  UNL455      0.0521
   2729 H          11.2100   11.9255   13.2729 H     455  UNL455      0.0521
   2730 H          13.8295   12.4272   12.2885 H     455  UNL455      0.2090
   2731 O          13.5165   12.6215   15.6828 O.3   456  UNL456     -0.3982
   2732 C          12.1007   12.6215   15.6828 C.3   456  UNL456      0.0330
   2733 H          11.7354   12.4952   16.7050 H     456  UNL456      0.0521
   2734 H          11.7355   11.8083   15.0509 H     456  UNL456      0.0521
   2735 H          11.7454   13.5757   15.2866 H     456  UNL456      0.0521
   2736 H          13.8022   11.7632   16.0393 H     456  UNL456      0.2090
   2737 O          13.1218   12.7247   19.4129 O.3   457  UNL457     -0.3982
   2738 C          12.3793   12.5663   18.2179 C.3   457  UNL457      0.0330
   2739 H          11.8739   11.5974   18.2275 H     457  UNL457      0.0521
   2740 H          13.0518   12.6299   17.3589 H     457  UNL457      0.0521
   2741 H          11.6343   13.3628   18.1543 H     457  UNL457      0.0521
   2742 H          13.7743   12.0043   19.4414 H     457  UNL457      0.2090
   2743 O          11.9964   11.5584   20.8268 O.3   458  UNL458     -0.3982
   2744 C          12.5924   12.6636   21.4810 C.3   458  UNL458      0.0330
   2745 H          11.9007   13.5097   21.4722 H     458  UNL458      0.0521
   2746 H          13.5206   12.9328   20.9710 H     458  UNL458      0.0521
   2747 H          12.8139   12.3876   22.5145 H     458  UNL458      0.0521
   2748 H          11.8115   11.8333   19.9126 H     458  UNL458      0.2090
   2749 O          11.3165   15.4665   -0.5752 O.3   459  UNL459     -0.3982
   2750 C           9.9007   15.4665   -0.5752 C.3   459  UNL459      0.0330
   2751 H           9.5354   14.6975    0.1100 H     459  UNL459      0.0521
   2752 H           9.5355   15.2718   -1.5865 H     459  UNL459      0.0521
   2753 H           9.5454   16.4451   -0.2440 H     459  UNL459      0.0521
   2754 H          11.6022   14.5861   -0.8732 H     459  UNL459      0.2090
   2755 O          12.3014   15.5504    2.0465 O.3   460  UNL460     -0.3982
   2756 C          10.9032   15.4206    2.2269 C.3   460  UNL460      0.0330
   2757 H          10.6883   14.4898    2.7578 H     460  UNL460      0.0521
   2758 H          10.4078   15.4198    1.2530 H     460  UNL460      0.0521
   2759 H          10.5410   16.2658    2.8167 H     460  UNL460      0.0521
   2760 H          12.5937   14.7869    1.5202 H     460  UNL460      0.2090
   2761 O          12.7789   14.2943    4.7234 O.3   461  UNL461     -0.3982
   2762 C          12.2031   15.5877    4.7234 C.3   461  UNL461      0.0330
   2763 H          12.9616   16.3252    4.4493 H     461  UNL461      0.0521
   2764 H          11.8053   15.8104    5.7165 H     461  UNL461      0.0521
   2765 H          11.3908   15.6150    3.9934 H     461  UNL461      0.0521
   2766 H          13.4958   14.3007    5.3803 H     461  UNL461      0.2090
   2767 O          11.5165   15.1857    7.6261 O.3   462  UNL462     -0.3982
   2768 C          10.1007   15.1857    7.6261 C.3   462  UNL462      0.0330
   2769 H           9.7354   15.2451    6.5978 H     462  UNL462      0.0521
   2770 H           9.7355   16.0383    8.2036 H     462  UNL462      0.0521
   2771 H           9.7454   14.2594    8.0837 H     462  UNL462      0.0521
   2772 H          11.8022   16.0190    7.2144 H     462  UNL462      0.2090
   2773 O          11.7283   16.0058   10.7454 O.3   463  UNL463     -0.3982
   2774 C          12.5000   15.0516   10.0393 C.3   463  UNL463      0.0330
   2775 H          12.9279   14.3342   10.7440 H     463  UNL463      0.0521
   2776 H          13.2971   15.5599    9.4913 H     463  UNL463      0.0521
   2777 H          11.8541   14.5246    9.3332 H     463  UNL463      0.0521
   2778 H          12.3279   16.4571   11.3637 H     463  UNL463      0.2090
   2779 O          13.5165   15.4665   13.0625 O.3   464  UNL464     -0.3982
   2780 C          12.1007   15.4665   13.0625 C.3   464  UNL464      0.0330
   2781 H          11.7354   14.6975   13.7477 H     464  UNL464      0.0521
   2782 H          11.7355   15.2718   12.0512 H     464  UNL464      0.0521
   2783 H          11.7454   16.4451   13.3937 H     464  UNL464      0.0521
   2784 H          13.8022   14.5861   12.7645 H     464  UNL464      0.2090
   2785 O          12.9404   14.8473   16.5821 O.3   465  UNL465     -0.3982
   2786 C          12.2092   15.5883   15.6224 C.3   465  UNL465      0.0330
   2787 H          11.5101   14.9264   15.1051 H     465  UNL465      0.0521
   2788 H          12.8997   16.0387   14.9053 H     465  UNL465      0.0521
   2789 H          11.6512   16.3771   16.1324 H     465  UNL465      0.0521
   2790 H          13.4248   14.1555   16.1003 H     465  UNL465      0.2090
   2791 O          13.5165   15.2203   18.5820 O.3   466  UNL466     -0.3982
   2792 C          12.1007   15.2203   18.5820 C.3   466  UNL466      0.0330
   2793 H          11.7354   14.8953   17.6046 H     466  UNL466      0.0521
   2794 H          11.7355   16.2261   18.8033 H     466  UNL466      0.0521
   2795 H          11.7454   14.5289   19.3496 H     466  UNL466      0.0521
   2796 H          13.8022   15.8424   17.8913 H     466  UNL466      0.2090
   2797 O          12.5114   15.1968   20.9181 O.3   467  UNL467     -0.3982
   2798 C          12.5301   15.1968   22.3338 C.3   467  UNL467      0.0330
   2799 H          11.5088   15.1080   22.7126 H     467  UNL467      0.0521
   2800 H          12.9841   16.1235   22.6930 H     467  UNL467      0.0521
   2801 H          13.1205   14.3458   22.6813 H     467  UNL467      0.0521
   2802 H          11.9806   15.9624   20.6394 H     467  UNL467      0.2090
   2803 O          13.2493   18.2527    0.0291 O.3   468  UNL468     -0.3982
   2804 C          12.3349   18.0250   -1.0276 C.3   468  UNL468      0.0330
   2805 H          11.9230   17.0162   -0.9432 H     468  UNL468      0.0521
   2806 H          12.8474   18.1418   -1.9856 H     468  UNL468      0.0521
   2807 H          11.5242   18.7541   -0.9592 H     468  UNL468      0.0521
   2808 H          13.9567   17.5912   -0.0578 H     468  UNL468      0.2090
   2809 O          12.7911   19.1244    2.6728 O.3   469  UNL469     -0.3982
   2810 C          12.1596   17.9653    2.1607 C.3   469  UNL469      0.0330
   2811 H          12.1604   17.1820    2.9228 H     469  UNL469      0.0521
   2812 H          12.6921   17.6226    1.2702 H     469  UNL469      0.0521
   2813 H          11.1289   18.2106    1.8944 H     469  UNL469      0.0521
   2814 H          13.7033   18.8760    2.9001 H     469  UNL469      0.2090
   2815 O          13.5165   18.3078    4.8799 O.3   470  UNL470     -0.3982
   2816 C          12.1007   18.3078    4.8799 C.3   470  UNL470      0.0330
   2817 H          11.7354   17.5388    5.5651 H     470  UNL470      0.0521
   2818 H          11.7355   18.1131    3.8686 H     470  UNL470      0.0521
   2819 H          11.7454   19.2864    5.2111 H     470  UNL470      0.0521
   2820 H          13.8022   17.4274    4.5819 H     470  UNL470      0.2090
   2821 O          11.7165   18.3078    7.6074 O.3   471  UNL471     -0.3982
   2822 C          10.3007   18.3078    7.6074 C.3   471  UNL471      0.0330
   2823 H           9.9354   17.5388    8.2926 H     471  UNL471      0.0521
   2824 H           9.9355   18.1131    6.5961 H     471  UNL471      0.0521
   2825 H           9.9454   19.2864    7.9386 H     471  UNL471      0.0521
   2826 H          12.0022   17.4274    7.3094 H     471  UNL471      0.2090
   2827 O          11.7165   18.3078   10.3350 O.3   472  UNL472     -0.3982
   2828 C          10.3007   18.3078   10.3350 C.3   472  UNL472      0.0330
   2829 H           9.9354   17.5388   11.0202 H     472  UNL472      0.0521
   2830 H           9.9355   18.1131    9.3237 H     472  UNL472      0.0521
   2831 H           9.9454   19.2864   10.6662 H     472  UNL472      0.0521
   2832 H          12.0022   17.4274   10.0370 H     472  UNL472      0.2090
   2833 O          12.1165   18.0126   13.0338 O.3   473  UNL473     -0.3982
   2834 C          10.7007   18.0126   13.0338 C.3   473  UNL473      0.0330
   2835 H          10.3354   18.3989   12.0790 H     473  UNL473      0.0521
   2836 H          10.3355   18.6347   13.8545 H     473  UNL473      0.0521
   2837 H          10.3454   16.9884   13.1698 H     473  UNL473      0.0521
   2838 H          12.4022   18.9339   12.9114 H     473  UNL473      0.2090
   2839 O          13.5165   18.0558   15.6336 O.3   474  UNL474     -0.3982
   2840 C          12.1007   18.0558   15.6336 C.3   474  UNL474      0.0330
   2841 H          11.7354   19.0486   15.3595 H     474  UNL474      0.0521
   2842 H          11.7355   17.7828   16.6267 H     474  UNL474      0.0521
   2843 H          11.7454   17.3248   14.9036 H     474  UNL474      0.0521
   2844 H          13.8022   18.7134   16.2905 H     474  UNL474      0.2090
   2845 O          11.5165   18.3078   18.5176 O.3   475  UNL475     -0.3982
   2846 C          10.1007   18.3078   18.5176 C.3   475  UNL475      0.0330
   2847 H           9.7354   17.5388   19.2028 H     475  UNL475      0.0521
   2848 H           9.7355   18.1131   17.5063 H     475  UNL475      0.0521
   2849 H           9.7454   19.2864   18.8488 H     475  UNL475      0.0521
   2850 H          11.8022   17.4274   18.2196 H     475  UNL475      0.2090
   2851 O          11.5165   18.3078   22.2452 O.3   476  UNL476     -0.3982
   2852 C          10.1007   18.3078   22.2452 C.3   476  UNL476      0.0330
   2853 H           9.7354   17.5388   22.9304 H     476  UNL476      0.0521
   2854 H           9.7355   18.1131   21.2339 H     476  UNL476      0.0521
   2855 H           9.7454   19.2864   22.5764 H     476  UNL476      0.0521
   2856 H          11.8022   17.4274   21.9472 H     476  UNL476      0.2090
   2857 O          13.5165   20.8627   -0.5694 O.3   477  UNL477     -0.3982
   2858 C          12.1007   20.8627   -0.5694 C.3   477  UNL477      0.0330
   2859 H          11.7354   21.0160   -1.5879 H     477  UNL477      0.0521
   2860 H          11.7355   21.6589    0.0838 H     477  UNL477      0.0521
   2861 H          11.7454   19.8984   -0.1984 H     477  UNL477      0.0521
   2862 H          13.8022   21.7302   -0.9031 H     477  UNL477      0.2090
   2863 O          11.5165   21.1491    2.1523 O.3   478  UNL478     -0.3982
   2864 C          10.1007   21.1491    2.1523 C.3   478  UNL478      0.0330
   2865 H           9.7354   20.3801    2.8375 H     478  UNL478      0.0521
   2866 H           9.7355   20.9544    1.1410 H     478  UNL478      0.0521
   2867 H           9.7454   22.1277    2.4835 H     478  UNL478      0.0521
   2868 H          11.8022   20.2687    1.8543 H     478  UNL478      0.2090
   2869 O          13.5165   20.8971    4.7234 O.3   479  UNL479     -0.3982
   2870 C          12.1007   20.8971    4.7234 C.3   479  UNL479      0.0330
   2871 H          11.7354   21.8899    4.4493 H     479  UNL479      0.0521
   2872 H          11.7355   20.6241    5.7165 H     479  UNL479      0.0521
   2873 H          11.7454   20.1661    3.9934 H     479  UNL479      0.0521
   2874 H          13.8022   21.5547    5.3803 H     479  UNL479      0.2090
   2875 O          11.5165   21.1454    7.5002 O.3   480  UNL480     -0.3982
   2876 C          10.1007   21.1454    7.5002 C.3   480  UNL480      0.0330
   2877 H           9.7354   21.0191    8.5224 H     480  UNL480      0.0521
   2878 H           9.7355   20.3322    6.8683 H     480  UNL480      0.0521
   2879 H           9.7454   22.0996    7.1039 H     480  UNL480      0.0521
   2880 H          11.8022   20.2871    7.8567 H     480  UNL480      0.2090
   2881 O          12.6830   22.1510   10.3885 O.3   481  UNL481     -0.3982
   2882 C          12.0221   20.9172   10.1753 C.3   481  UNL481      0.0330
   2883 H          12.7607   20.1369    9.9756 H     481  UNL481      0.0521
   2884 H          11.3375   21.0111    9.3289 H     481  UNL481      0.0521
   2885 H          11.4552   20.6582   11.0726 H     481  UNL481      0.0521
   2886 H          13.1771   22.3545    9.5761 H     481  UNL481      0.2090
   2887 O          11.5165   21.1491   13.0625 O.3   482  UNL482     -0.3982
   2888 C          10.1007   21.1491   13.0625 C.3   482  UNL482      0.0330
   2889 H           9.7354   20.3801   13.7477 H     482  UNL482      0.0521
   2890 H           9.7355   20.9544   12.0512 H     482  UNL482      0.0521
   2891 H           9.7454   22.1277   13.3937 H     482  UNL482      0.0521
   2892 H          11.8022   20.2687   12.7645 H     482  UNL482      0.2090
   2893 O          12.1165   21.1491   15.7901 O.3   483  UNL483     -0.3982
   2894 C          10.7007   21.1491   15.7901 C.3   483  UNL483      0.0330
   2895 H          10.3354   20.3801   16.4753 H     483  UNL483      0.0521
   2896 H          10.3355   20.9544   14.7788 H     483  UNL483      0.0521
   2897 H          10.3454   22.1277   16.1213 H     483  UNL483      0.0521
   2898 H          12.4022   20.2687   15.4921 H     483  UNL483      0.2090
   2899 O          12.4011   21.0340   19.5557 O.3   484  UNL484     -0.3982
   2900 C          12.2624   21.0590   18.1469 C.3   484  UNL484      0.0330
   2901 H          12.4232   20.0550   17.7462 H     484  UNL484      0.0521
   2902 H          12.9900   21.7538   17.7206 H     484  UNL484      0.0521
   2903 H          11.2528   21.3921   17.8951 H     484  UNL484      0.0521
   2904 H          13.3060   20.7350   19.7485 H     484  UNL484      0.2090
   2905 O          13.3165   20.9519   22.0535 O.3   485  UNL485     -0.3982
   2906 C          11.9007   20.9519   22.0535 C.3   485  UNL485      0.0330
   2907 H          11.5354   21.9684   22.2198 H     485  UNL485      0.0521
   2908 H          11.5355   20.2887   22.8414 H     485  UNL485      0.0521
   2909 H          11.5454   20.5933   21.0846 H     485  UNL485      0.0521
   2910 H          13.6022   21.2745   22.9252 H     485  UNL485      0.2090
   2911 O          13.5165   23.9904   -0.5752 O.3   486  UNL486     -0.3982
   2912 C          12.1007   23.9904   -0.5752 C.3   486  UNL486      0.0330
   2913 H          11.7354   23.2214    0.1100 H     486  UNL486      0.0521
   2914 H          11.7355   23.7957   -1.5865 H     486  UNL486      0.0521
   2915 H          11.7454   24.9690   -0.2440 H     486  UNL486      0.0521
   2916 H          13.8022   23.1100   -0.8732 H     486  UNL486      0.2090
   2917 O          13.0410   24.4242    2.8016 O.3   487  UNL487     -0.3982
   2918 C          12.1918   23.8471    1.8267 C.3   487  UNL487      0.0330
   2919 H          11.4533   23.2084    2.3176 H     487  UNL487      0.0521
   2920 H          12.7883   23.2595    1.1246 H     487  UNL487      0.0521
   2921 H          11.6780   24.6452    1.2858 H     487  UNL487      0.0521
   2922 H          13.4829   23.6923    3.2648 H     487  UNL487      0.2090
   2923 O          13.5165   23.9904    4.8799 O.3   488  UNL488     -0.3982
   2924 C          12.1007   23.9904    4.8799 C.3   488  UNL488      0.0330
   2925 H          11.7354   23.2214    5.5651 H     488  UNL488      0.0521
   2926 H          11.7355   23.7957    3.8686 H     488  UNL488      0.0521
   2927 H          11.7454   24.9690    5.2111 H     488  UNL488      0.0521
   2928 H          13.8022   23.1100    4.5819 H     488  UNL488      0.2090
   2929 O          11.7165   23.9904    7.6074 O.3   489  UNL489     -0.3982
   2930 C          10.3007   23.9904    7.6074 C.3   489  UNL489      0.0330
   2931 H           9.9354   23.2214    8.2926 H     489  UNL489      0.0521
   2932 H           9.9355   23.7957    6.5961 H     489  UNL489      0.0521
   2933 H           9.9454   24.9690    7.9386 H     489  UNL489      0.0521
   2934 H          12.0022   23.1100    7.3094 H     489  UNL489      0.2090
   2935 O          11.2813   23.9904    9.6126 O.3   490  UNL490     -0.3982
   2936 C          10.2169   23.9904   10.5461 C.3   490  UNL490      0.0330
   2937 H          10.3941   23.2214   11.3021 H     490  UNL490      0.0521
   2938 H           9.2755   23.7957   10.0266 H     490  UNL490      0.0521
   2939 H          10.1682   24.9690   11.0294 H     490  UNL490      0.0521
   2940 H          11.2996   23.1100    9.2001 H     490  UNL490      0.2090
   2941 O          12.0165   23.0011   13.4299 O.3   491  UNL491     -0.3982
   2942 C          12.9282   23.8784   12.7946 C.3   491  UNL491      0.0330
   2943 H          12.3830   24.7199   12.3601 H     491  UNL491      0.0521
   2944 H          13.4700   23.3392   12.0138 H     491  UNL491      0.0521
   2945 H          13.6382   24.2512   13.5366 H     491  UNL491      0.0521
   2946 H          11.3996   22.6867   12.7472 H     491  UNL491      0.2090
   2947 O          13.0178   24.5288   16.5599 O.3   492  UNL492     -0.3982
   2948 C          12.1252   23.7817   15.7540 C.3   492  UNL492      0.0330
   2949 H          11.8653   22.8505   16.2634 H     492  UNL492      0.0521
   2950 H          12.5964   23.5641   14.7923 H     492  UNL492      0.0521
   2951 H          11.2191   24.3692   15.5886 H     492  UNL492      0.0521
   2952 H          13.8116   23.9824   16.6893 H     492  UNL492      0.2090
   2953 O          13.5165   23.7194   18.3843 O.3   493  UNL493     -0.3982
   2954 C          12.1007   23.7194   18.3843 C.3   493  UNL493      0.0330
   2955 H          11.7354   24.6394   17.9213 H     493  UNL493      0.0521
   2956 H          11.7355   23.6459   19.4116 H     493  UNL493      0.0521
   2957 H          11.7454   22.8597   17.8113 H     493  UNL493      0.0521
   2958 H          13.8022   24.4928   18.8999 H     493  UNL493      0.2090
   2959 O          13.2802   23.3050   22.6248 O.3   494  UNL494     -0.3982
   2960 C          12.2158   24.1422   22.2117 C.3   494  UNL494      0.0330
   2961 H          11.2758   23.5867   22.2561 H     494  UNL494      0.0521
   2962 H          12.3987   24.4890   21.1917 H     494  UNL494      0.0521
   2963 H          12.1599   25.0029   22.8823 H     494  UNL494      0.0521
   2964 H          13.3050   22.5508   22.0116 H     494  UNL494      0.2090
   2965 O          11.7165   26.8317   -0.5752 O.3   495  UNL495     -0.3982
   2966 C          10.3007   26.8317   -0.5752 C.3   495  UNL495      0.0330
   2967 H           9.9354   26.0627    0.1100 H     495  UNL495      0.0521
   2968 H           9.9355   26.6370   -1.5865 H     495  UNL495      0.0521
   2969 H           9.9454   27.8103   -0.2440 H     495  UNL495      0.0521
   2970 H          12.0022   25.9513   -0.8732 H     495  UNL495      0.2090
   2971 O          11.5165   26.8317    2.1523 O.3   496  UNL496     -0.3982
   2972 C          10.1007   26.8317    2.1523 C.3   496  UNL496      0.0330
   2973 H           9.7354   26.0627    2.8375 H     496  UNL496      0.0521
   2974 H           9.7355   26.6370    1.1410 H     496  UNL496      0.0521
   2975 H           9.7454   27.8103    2.4835 H     496  UNL496      0.0521
   2976 H          11.8022   25.9513    1.8543 H     496  UNL496      0.2090
   2977 O          11.7759   26.8317    4.0436 O.3   497  UNL497     -0.3982
   2978 C          10.8565   26.8317    5.1202 C.3   497  UNL497      0.0330
   2979 H          11.1403   26.0627    5.8430 H     497  UNL497      0.0521
   2980 H           9.8503   26.6370    4.7412 H     497  UNL497      0.0521
   2981 H          10.8776   27.8103    5.6055 H     497  UNL497      0.0521
   2982 H          11.7348   25.9513    3.6328 H     497  UNL497      0.2090
   2983 O          11.5165   26.8317    7.6074 O.3   498  UNL498     -0.3982
   2984 C          10.1007   26.8317    7.6074 C.3   498  UNL498      0.0330
   2985 H           9.7354   26.0627    8.2926 H     498  UNL498      0.0521
   2986 H           9.7355   26.6370    6.5961 H     498  UNL498      0.0521
   2987 H           9.7454   27.8103    7.9386 H     498  UNL498      0.0521
   2988 H          11.8022   25.9513    7.3094 H     498  UNL498      0.2090
   2989 O          11.4746   26.3694   10.1839 O.3   499  UNL499     -0.3982
   2990 C          10.2012   26.9545   10.3853 C.3   499  UNL499      0.0330
   2991 H           9.6329   26.3552   11.1010 H     499  UNL499      0.0521
   2992 H           9.6682   27.0061    9.4328 H     499  UNL499      0.0521
   2993 H          10.3327   27.9639   10.7820 H     499  UNL499      0.0521
   2994 H          11.3258   25.4753    9.8319 H     499  UNL499      0.2090
   2995 O          11.4553   26.8317   12.1287 O.3   500  UNL500     -0.3982
   2996 C          10.6999   26.8317   13.3261 C.3   500  UNL500      0.0330
   2997 H          11.0845   26.0627   14.0007 H     500  UNL500      0.0521
   2998 H           9.6497   26.6370   13.0954 H     500  UNL500      0.0521
   2999 H          10.7904   27.8103   13.8033 H     500  UNL500      0.0521
   3000 H          11.3557   25.9513   11.7280 H     500  UNL500      0.2090
   3001 O          11.5165   26.7287   15.5947 O.3   501  UNL501     -0.3982
   3002 C          10.1007   26.7287   15.5947 C.3   501  UNL501      0.0330
   3003 H           9.7354   27.4527   16.3273 H     501  UNL501      0.0521
   3004 H           9.7355   25.7288   15.8413 H     501  UNL501      0.0521
   3005 H           9.7454   27.0090   14.6003 H     501  UNL501      0.0521
   3006 H          11.8022   26.4765   16.4893 H     501  UNL501      0.2090
   3007 O          11.3487   26.4556   19.0191 O.3   502  UNL502     -0.3982
   3008 C          10.2843   26.8464   18.1713 C.3   502  UNL502      0.0330
   3009 H           9.6000   27.4979   18.7206 H     502  UNL502      0.0521
   3010 H           9.7542   25.9588   17.8177 H     502  UNL502      0.0521
   3011 H          10.6925   27.3893   17.3156 H     502  UNL502      0.0521
   3012 H          10.9558   25.9765   19.7686 H     502  UNL502      0.2090
   3013 O          10.4131   25.6009   22.0452 O.3   503  UNL503     -0.3982
   3014 C          10.6347   26.9992   22.0452 C.3   503  UNL503      0.0330
   3015 H           9.9324   27.4804   22.7304 H     503  UNL503      0.0521
   3016 H          10.4996   27.3904   21.0339 H     503  UNL503      0.0521
   3017 H          11.6569   27.1969   22.3764 H     503  UNL503      0.0521
   3018 H           9.4988   25.4565   21.7472 H     503  UNL503      0.2090
   3019 O          12.4046   30.2353    0.2025 O.3   504  UNL504     -0.3982
   3020 C          12.2765   29.2476   -0.8038 C.3   504  UNL504      0.0330
   3021 H          13.1225   28.5581   -0.7487 H     504  UNL504      0.0521
   3022 H          12.2471   29.7276   -1.7850 H     504  UNL504      0.0521
   3023 H          11.3478   28.6950   -0.6430 H     504  UNL504      0.0521
   3024 H          13.2370   30.7088    0.0337 H     504  UNL504      0.2090
   3025 O          13.5165   29.4170    2.2070 O.3   505  UNL505     -0.3982
   3026 C          12.1007   29.4170    2.2070 C.3   505  UNL505      0.0330
   3027 H          11.7354   29.1819    1.2042 H     505  UNL505      0.0521
   3028 H          11.7355   30.3986    2.5186 H     505  UNL505      0.0521
   3029 H          11.7454   28.6588    2.9088 H     505  UNL505      0.0521
   3030 H          13.8022   30.0990    1.5756 H     505  UNL505      0.2090
   3031 O          13.4652   29.1774    4.7433 O.3   506  UNL506     -0.3982
   3032 C          12.1227   29.5280    5.0250 C.3   506  UNL506      0.0330
   3033 H          11.4781   29.1897    4.2100 H     506  UNL506      0.0521
   3034 H          12.0446   30.6119    5.1396 H     506  UNL506      0.0521
   3035 H          11.8163   29.0426    5.9545 H     506  UNL506      0.0521
   3036 H          13.7087   29.6226    3.9138 H     506  UNL506      0.2090
   3037 O          13.3165   29.5853    7.5000 O.3   507  UNL507     -0.3982
   3038 C          11.9007   29.5853    7.5000 C.3   507  UNL507      0.0330
   3039 H          11.5354   28.5648    7.3606 H     507  UNL507      0.0521
   3040 H          11.5355   30.2276    6.6949 H     507  UNL507      0.0521
   3041 H          11.5454   29.9694    8.4591 H     507  UNL507      0.0521
   3042 H          13.6022   29.2398    6.6371 H     507  UNL507      0.2090
   3043 O          12.9254   30.4344   10.6424 O.3   508  UNL508     -0.3982
   3044 C          12.1341   29.3707   10.1456 C.3   508  UNL508      0.0330
   3045 H          12.0224   28.6065   10.9188 H     508  UNL508      0.0521
   3046 H          12.6119   28.9423    9.2612 H     508  UNL508      0.0521
   3047 H          11.1492   29.7574    9.8737 H     508  UNL508      0.0521
   3048 H          13.7925   30.0610   10.8752 H     508  UNL508      0.2090
   3049 O          13.3165   29.6170   12.9172 O.3   509  UNL509     -0.3982
   3050 C          11.9007   29.6170   12.9172 C.3   509  UNL509      0.0330
   3051 H          11.5354   29.3819   11.9144 H     509  UNL509      0.0521
   3052 H          11.5355   30.5986   13.2288 H     509  UNL509      0.0521
   3053 H          11.5454   28.8588   13.6190 H     509  UNL509      0.0521
   3054 H          13.6022   30.2990   12.2858 H     509  UNL509      0.2090
   3055 O          13.1313   30.1323   16.3246 O.3   510  UNL510     -0.3982
   3056 C          12.1104   29.5048   15.5707 C.3   510  UNL510      0.0330
   3057 H          11.7602   28.6149   16.0996 H     510  UNL510      0.0521
   3058 H          12.4997   29.2280   14.5879 H     510  UNL510      0.0521
   3059 H          11.2794   30.2033   15.4474 H     510  UNL510      0.0521
   3060 H          13.8544   29.4889   16.4174 H     510  UNL510      0.2090
   3061 O          11.3115   29.6468   17.7131 O.3   511  UNL511     -0.3982
   3062 C          12.5811   29.3845   18.2820 C.3   511  UNL511      0.0330
   3063 H          12.4546   28.8509   19.2274 H     511  UNL511      0.0521
   3064 H          13.1074   30.3271   18.4509 H     511  UNL511      0.0521
   3065 H          13.1589   28.7658   17.5915 H     511  UNL511      0.0521
   3066 H          10.8220   30.1972   18.3480 H     511  UNL511      0.2090
   3067 O          11.5287   28.9627   21.4113 O.3   512  UNL512     -0.3982
   3068 C          12.7984   29.5802   21.5176 C.3   512  UNL512      0.0330
   3069 H          13.1652   29.4870   22.5428 H     512  UNL512      0.0521
   3070 H          12.7158   30.6346   21.2432 H     512  UNL512      0.0521
   3071 H          13.4936   29.0824   20.8375 H     512  UNL512      0.0521
   3072 H          10.9337   29.4254   22.0257 H     512  UNL512      0.2090
   3073 O          13.3165   32.0623   -0.7317 O.3   513  UNL513     -0.3982
   3074 C          11.9007   32.0623   -0.7317 C.3   513  UNL513      0.0330
   3075 H          11.5354   33.0551   -1.0058 H     513  UNL513      0.0521
   3076 H          11.5355   31.7893    0.2614 H     513  UNL513      0.0521
   3077 H          11.5454   31.3313   -1.4617 H     513  UNL513      0.0521
   3078 H          13.6022   32.7199   -0.0748 H     513  UNL513      0.2090
   3079 O          13.0558   32.5143    2.9882 O.3   514  UNL514     -0.3982
   3080 C          12.1945   32.5143    1.8645 C.3   514  UNL514      0.0330
   3081 H          11.4285   31.7453    1.9914 H     514  UNL514      0.0521
   3082 H          12.7750   32.3196    0.9594 H     514  UNL514      0.0521
   3083 H          11.7155   33.4929    1.7840 H     514  UNL514      0.0521
   3084 H          13.4661   31.6339    3.0336 H     514  UNL514      0.2090
   3085 O          13.3165   32.3222    4.8369 O.3   515  UNL515     -0.3982
   3086 C          11.9007   32.3222    4.8369 C.3   515  UNL515      0.0330
   3087 H          11.5354   31.7795    5.7123 H     515  UNL515      0.0521
   3088 H          11.5355   31.8483    3.9225 H     515  UNL515      0.0521
   3089 H          11.5454   33.3545    4.8765 H     515  UNL515      0.0521
   3090 H          13.6022   31.3934    4.8012 H     515  UNL515      0.2090
   3091 O          11.5165   32.2623    7.4510 O.3   516  UNL516     -0.3982
   3092 C          10.1007   32.2623    7.4510 C.3   516  UNL516      0.0330
   3093 H           9.7354   33.2551    7.1768 H     516  UNL516      0.0521
   3094 H           9.7355   31.9893    8.4440 H     516  UNL516      0.0521
   3095 H           9.7454   31.5313    6.7209 H     516  UNL516      0.0521
   3096 H          11.8022   32.9199    8.1078 H     516  UNL516      0.2090
   3097 O          13.0360   32.6340   10.6636 O.3   517  UNL517     -0.3982
   3098 C          11.9716   32.2099    9.8320 C.3   517  UNL517      0.0330
   3099 H          11.1552   31.8277   10.4499 H     517  UNL517      0.0521
   3100 H          12.3262   31.4293    9.1545 H     517  UNL517      0.0521
   3101 H          11.6157   33.0619    9.2481 H     517  UNL517      0.0521
   3102 H          13.3307   31.8573   11.1689 H     517  UNL517      0.2090
   3103 O          11.5244   32.6791   13.5149 O.3   518  UNL518     -0.3982
   3104 C          12.5998   32.1516   12.7600 C.3   518  UNL518      0.0330
   3105 H          13.3289   31.6939   13.4333 H     518  UNL518      0.0521
   3106 H          13.0710   32.9533   12.1861 H     518  UNL518      0.0521
   3107 H          12.2143   31.3936   12.0742 H     518  UNL518      0.0521
   3108 H          11.8970   33.3485   14.1138 H     518  UNL518      0.2090
   3109 O          13.3165   32.0697   15.8559 O.3   519  UNL519     -0.3982
   3110 C          11.9007   32.0697   15.8559 C.3   519  UNL519      0.0330
   3111 H          11.5354   31.7307   14.8833 H     519  UNL519      0.0521
   3112 H          11.5355   33.0786   16.0627 H     519  UNL519      0.0521
   3113 H          11.5454   31.3895   16.6335 H     519  UNL519      0.0521
   3114 H          13.6022   32.6818   15.1563 H     519  UNL519      0.2090
   3115 O          11.6320   32.3081   19.1956 O.3   520  UNL520     -0.3982
   3116 C          12.5636   32.5119   18.1491 C.3   520  UNL520      0.0330
   3117 H          12.7865   31.5567   17.6672 H     520  UNL520      0.0521
   3118 H          13.4788   32.9497   18.5550 H     520  UNL520      0.0521
   3119 H          12.1298   33.1953   17.4153 H     520  UNL520      0.0521
   3120 H          12.0446   31.6983   19.8307 H     520  UNL520      0.2090
   3121 O          13.5165   32.3877   22.0451 O.3   521  UNL521     -0.3982
   3122 C          12.1007   32.3877   22.0451 C.3   521  UNL521      0.0330
   3123 H          11.7354   33.2179   22.6547 H     521  UNL521      0.0521
   3124 H          11.7355   31.4391   22.4459 H     521  UNL521      0.0521
   3125 H          11.7454   32.5081   21.0190 H     521  UNL521      0.0521
   3126 H          13.8022   32.2794   22.9682 H     521  UNL521      0.2090
   3127 O          11.7622   35.1699   -0.9471 O.3   522  UNL522     -0.3982
   3128 C          12.7502   35.3507    0.0507 C.3   522  UNL522      0.0330
   3129 H          13.2228   34.3913    0.2750 H     522  UNL522      0.0521
   3130 H          12.2882   35.7610    0.9520 H     522  UNL522      0.0521
   3131 H          13.5051   36.0486   -0.3191 H     522  UNL522      0.0521
   3132 H          11.1068   34.5464   -0.5905 H     522  UNL522      0.2090
   3133 O          13.1838   37.4247    2.1282 O.3   523  UNL523     -0.3982
   3134 C          12.2631   36.7273    2.9469 C.3   523  UNL523      0.0330
   3135 H          12.5076   35.6622    2.9462 H     523  UNL523      0.0521
   3136 H          11.2494   36.8796    2.5682 H     523  UNL523      0.0521
   3137 H          12.3306   37.1138    3.9665 H     523  UNL523      0.0521
   3138 H          13.1010   37.0603    1.2305 H     523  UNL523      0.2090
   3139 O          13.4588   34.6851    6.0434 O.3   524  UNL524     -0.3982
   3140 C          12.2728   35.2645    5.5313 C.3   524  UNL524      0.0330
   3141 H          12.1959   35.0543    4.4616 H     524  UNL524      0.0521
   3142 H          12.2909   36.3438    5.7010 H     524  UNL524      0.0521
   3143 H          11.4136   34.8310    6.0483 H     524  UNL524      0.0521
   3144 H          14.2034   35.0891    5.5660 H     524  UNL524      0.2090
   3145 O          12.3061   35.3355    8.1782 O.3   525  UNL525     -0.3982
   3146 C          12.6496   36.7088    8.1572 C.3   525  UNL525      0.0330
   3147 H          11.8784   37.2862    8.6732 H     525  UNL525      0.0521
   3148 H          12.7413   37.0465    7.1221 H     525  UNL525      0.0521
   3149 H          13.6058   36.8438    8.6683 H     525  UNL525      0.0521
   3150 H          11.4541   35.2470    7.7180 H     525  UNL525      0.2090
   3151 O          13.4408   35.3513   11.6147 O.3   526  UNL526     -0.3982
   3152 C          12.1260   35.0121   11.2140 C.3   526  UNL526      0.0330
   3153 H          12.1148   34.7959   10.1428 H     526  UNL526      0.0521
   3154 H          11.4509   35.8421   11.4361 H     526  UNL526      0.0521
   3155 H          11.8039   34.1258   11.7658 H     526  UNL526      0.0521
   3156 H          13.6990   36.1406   11.1088 H     526  UNL526      0.2090
   3157 O          12.3890   35.3257   13.4911 O.3   527  UNL527     -0.3982
   3158 C          12.2841   36.7371   13.4540 C.3   527  UNL527      0.0330
   3159 H          13.1530   37.1546   12.9390 H     527  UNL527      0.0521
   3160 H          12.2298   37.1263   14.4736 H     527  UNL527      0.0521
   3161 H          11.3758   37.0118   12.9126 H     527  UNL527      0.0521
   3162 H          13.2037   35.1125   13.9773 H     527  UNL527      0.2090
   3163 O          12.5498   36.2382   16.3270 O.3   528  UNL528     -0.3982
   3164 C          12.4775   34.8497   16.5940 C.3   528  UNL528      0.0330
   3165 H          11.4407   34.5702   16.7967 H     528  UNL528      0.0521
   3166 H          13.1057   34.6102   17.4554 H     528  UNL528      0.0521
   3167 H          12.8365   34.3008   15.7202 H     528  UNL528      0.0521
   3168 H          12.2252   36.6988   17.1195 H     528  UNL528      0.2090
   3169 O          12.7435   36.1469   20.7320 O.3   529  UNL529     -0.3982
   3170 C          12.5313   34.8657   21.2958 C.3   529  UNL529      0.0330
   3171 H          11.7191   34.3629   20.7649 H     529  UNL529      0.0521
   3172 H          12.2799   34.9695   22.3541 H     529  UNL529      0.0521
   3173 H          13.4470   34.2780   21.1970 H     529  UNL529      0.0521
   3174 H          11.9146   36.6450   20.8344 H     529  UNL529      0.2090
   3175 O          15.5615    0.7950   -0.7312 O.3   530  UNL530     -0.3982
   3176 C          14.1457    0.7950   -0.7312 C.3   530  UNL530      0.0330
   3177 H          13.7804    0.6522   -1.7512 H     530  UNL530      0.0521
   3178 H          13.7805    1.7442   -0.3315 H     530  UNL530      0.0521
   3179 H          13.7904   -0.0239   -0.1013 H     530  UNL530      0.0521
   3180 H          15.8472    1.5317   -1.2979 H     530  UNL530      0.2090
   3181 O          16.2222    1.7794    1.4299 O.3   531  UNL531     -0.3982
   3182 C          15.4220    1.0775    2.3635 C.3   531  UNL531      0.0330
   3183 H          16.0623    0.6162    3.1195 H     531  UNL531      0.0521
   3184 H          14.8426    0.3104    1.8440 H     531  UNL531      0.0521
   3185 H          14.7401    1.7811    2.8467 H     531  UNL531      0.0521
   3186 H          16.8165    1.1296    1.0175 H     531  UNL531      0.2090
   3187 O          16.7615    1.2600    4.8799 O.3   532  UNL532     -0.3982
   3188 C          15.3457    1.2600    4.8799 C.3   532  UNL532      0.0330
   3189 H          14.9804    0.4910    5.5651 H     532  UNL532      0.0521
   3190 H          14.9805    1.0653    3.8686 H     532  UNL532      0.0521
   3191 H          14.9904    2.2386    5.2111 H     532  UNL532      0.0521
   3192 H          17.0472    0.3796    4.5819 H     532  UNL532      0.2090
   3193 O          16.7615    1.0080    7.4510 O.3   533  UNL533     -0.3982
   3194 C          15.3457    1.0080    7.4510 C.3   533  UNL533      0.0330
   3195 H          14.9804    2.0008    7.1768 H     533  UNL533      0.0521
   3196 H          14.9805    0.7350    8.4440 H     533  UNL533      0.0521
   3197 H          14.9904    0.2770    6.7209 H     533  UNL533      0.0521
   3198 H          17.0472    1.6656    8.1078 H     533  UNL533      0.2090
   3199 O          14.4809    1.7170   10.7191 O.3   534  UNL534     -0.3982
   3200 C          13.4165    0.8641   10.3394 C.3   534  UNL534      0.0330
   3201 H          13.7714    0.1454    9.5966 H     534  UNL534      0.0521
   3202 H          12.6008    1.4608    9.9241 H     534  UNL534      0.0521
   3203 H          13.0597    0.3271   11.2214 H     534  UNL534      0.0521
   3204 H          14.7764    2.1798    9.9165 H     534  UNL534      0.2090
   3205 O          14.9615    0.9637   13.0039 O.3   535  UNL535     -0.3982
   3206 C          13.5457    0.9637   13.0039 C.3   535  UNL535      0.0330
   3207 H          13.1804    1.5294   12.1431 H     535  UNL535      0.0521
   3208 H          13.1805    1.4134   13.9304 H     535  UNL535      0.0521
   3209 H          13.1904   -0.0672   12.9370 H     535  UNL535      0.0521
   3210 H          15.2472    1.8913   13.0640 H     535  UNL535      0.2090
   3211 O          16.7297    1.1647   16.0385 O.3   536  UNL536     -0.3982
   3212 C          15.3285    1.1647   15.8354 C.3   536  UNL536      0.0330
   3213 H          14.9948    0.1531   15.5915 H     536  UNL536      0.0521
   3214 H          15.0776    1.8489   15.0212 H     536  UNL536      0.0521
   3215 H          14.8365    1.4972   16.7524 H     536  UNL536      0.0521
   3216 H          17.1387    0.8656   15.2086 H     536  UNL536      0.2090
   3217 O          15.6698    0.7638   19.4981 O.3   537  UNL537     -0.3982
   3218 C          15.5262    1.3256   18.2065 C.3   537  UNL537      0.0330
   3219 H          15.3884    0.5266   17.4739 H     537  UNL537      0.0521
   3220 H          16.4166    1.9098   17.9614 H     537  UNL537      0.0521
   3221 H          14.6508    1.9792   18.1987 H     537  UNL537      0.0521
   3222 H          16.4539    0.1893   19.4743 H     537  UNL537      0.2090
   3223 O          14.7615    1.2600   21.8452 O.3   538  UNL538     -0.3982
   3224 C          13.3457    1.2600   21.8452 C.3   538  UNL538      0.0330
   3225 H          12.9804    0.4910   22.5304 H     538  UNL538      0.0521
   3226 H          12.9805    1.0653   20.8339 H     538  UNL538      0.0521
   3227 H          12.9904    2.2386   22.1764 H     538  UNL538      0.0521
   3228 H          15.0472    0.3796   21.5472 H     538  UNL538      0.2090
   3229 O          16.7615    3.1013   -0.5752 O.3   539  UNL539     -0.3982
   3230 C          15.3457    3.1013   -0.5752 C.3   539  UNL539      0.0330
   3231 H          14.9804    2.3323    0.1100 H     539  UNL539      0.0521
   3232 H          14.9805    2.9066   -1.5865 H     539  UNL539      0.0521
   3233 H          14.9904    4.0799   -0.2440 H     539  UNL539      0.0521
   3234 H          17.0472    2.2209   -0.8732 H     539  UNL539      0.2090
   3235 O          16.5061    3.3906    2.5364 O.3   540  UNL540     -0.3982
   3236 C          15.3676    3.9525    1.9099 C.3   540  UNL540      0.0330
   3237 H          15.6860    4.6528    1.1338 H     540  UNL540      0.0521
   3238 H          14.7587    4.4700    2.6552 H     540  UNL540      0.0521
   3239 H          14.7802    3.1510    1.4557 H     540  UNL540      0.0521
   3240 H          17.0072    4.1251    2.9301 H     540  UNL540      0.2090
   3241 O          16.5061    3.3906    5.2640 O.3   541  UNL541     -0.3982
   3242 C          15.3676    3.9525    4.6375 C.3   541  UNL541      0.0330
   3243 H          15.6860    4.6528    3.8613 H     541  UNL541      0.0521
   3244 H          14.7587    4.4700    5.3827 H     541  UNL541      0.0521
   3245 H          14.7802    3.1510    4.1832 H     541  UNL541      0.0521
   3246 H          17.0072    4.1251    5.6576 H     541  UNL541      0.2090
   3247 O          16.7615    3.8567    7.6732 O.3   542  UNL542     -0.3982
   3248 C          15.3457    3.8567    7.6732 C.3   542  UNL542      0.0330
   3249 H          14.9804    3.5177    6.7007 H     542  UNL542      0.0521
   3250 H          14.9805    4.8656    7.8800 H     542  UNL542      0.0521
   3251 H          14.9904    3.1765    8.4508 H     542  UNL542      0.0521
   3252 H          17.0472    4.4688    6.9737 H     542  UNL542      0.2090
   3253 O          15.2157    4.9024   10.0212 O.3   543  UNL543     -0.3982
   3254 C          15.9362    3.7784   10.4922 C.3   543  UNL543      0.0330
   3255 H          16.4688    3.3110    9.6602 H     543  UNL543      0.0521
   3256 H          15.2437    3.0634   10.9431 H     543  UNL543      0.0521
   3257 H          16.6570    4.1080   11.2442 H     543  UNL543      0.0521
   3258 H          14.5845    4.5789    9.3560 H     543  UNL543      0.2090
   3259 O          14.5565    4.6957   13.1942 O.3   544  UNL544     -0.3982
   3260 C          15.8261    4.1603   12.8689 C.3   544  UNL544      0.0330
   3261 H          15.6996    3.2817   12.2314 H     544  UNL544      0.0521
   3262 H          16.3524    3.8853   13.7862 H     544  UNL544      0.0521
   3263 H          16.4040    4.9167   12.3327 H     544  UNL544      0.0521
   3264 H          14.0671    4.0024   13.6688 H     544  UNL544      0.2090
   3265 O          16.1554    3.1401   16.2838 O.3   545  UNL545     -0.3982
   3266 C          15.7269    4.2679   15.5429 C.3   545  UNL545      0.0330
   3267 H          15.1040    4.9054   16.1753 H     545  UNL545      0.0521
   3268 H          15.1596    3.9371   14.6696 H     545  UNL545      0.0521
   3269 H          16.6035    4.8305   15.2134 H     545  UNL545      0.0521
   3270 H          15.3564    2.6610   16.5625 H     545  UNL545      0.2090
   3271 O          16.7615    4.1005   18.4179 O.3   546  UNL546     -0.3982
   3272 C          15.3457    4.1005   18.4179 C.3   546  UNL546      0.0330
   3273 H          14.9804    3.9204   19.4320 H     546  UNL546      0.0521
   3274 H          14.9805    3.3218   17.7439 H     546  UNL546      0.0521
   3275 H          14.9904    5.0742   18.0725 H     546  UNL546      0.0521
   3276 H          17.0472    3.2245   18.7286 H     546  UNL546      0.2090
   3277 O          15.1644    3.0362   20.9407 O.3   547  UNL547     -0.3982
   3278 C          15.9761    4.1792   21.1387 C.3   547  UNL547      0.0330
   3279 H          16.3156    4.2107   22.1770 H     547  UNL547      0.0521
   3280 H          15.4028    5.0793   20.9041 H     547  UNL547      0.0521
   3281 H          16.8426    4.1187   20.4761 H     547  UNL547      0.0521
   3282 H          14.4043    3.1180   21.5416 H     547  UNL547      0.2090
   3283 O          15.9535    7.6280    0.0261 O.3   548  UNL548     -0.3982
   3284 C          15.4158    6.6109   -0.7990 C.3   548  UNL548      0.0330
   3285 H          15.6478    5.6325   -0.3708 H     548  UNL548      0.0521
   3286 H          15.8411    6.6915   -1.8023 H     548  UNL548      0.0521
   3287 H          14.3317    6.7342   -0.8542 H     548  UNL548      0.0521
   3288 H          16.9160    7.4927    0.0560 H     548  UNL548      0.2090
   3289 O          16.7615    6.9426    2.1523 O.3   549  UNL549     -0.3982
   3290 C          15.3457    6.9426    2.1523 C.3   549  UNL549      0.0330
   3291 H          14.9804    6.1736    2.8375 H     549  UNL549      0.0521
   3292 H          14.9805    6.7479    1.1410 H     549  UNL549      0.0521
   3293 H          14.9904    7.9212    2.4835 H     549  UNL549      0.0521
   3294 H          17.0472    6.0622    1.8543 H     549  UNL549      0.2090
   3295 O          16.7615    6.6474    4.8511 O.3   550  UNL550     -0.3982
   3296 C          15.3457    6.6474    4.8511 C.3   550  UNL550      0.0330
   3297 H          14.9804    7.0337    3.8964 H     550  UNL550      0.0521
   3298 H          14.9805    7.2695    5.6718 H     550  UNL550      0.0521
   3299 H          14.9904    5.6232    4.9872 H     550  UNL550      0.0521
   3300 H          17.0472    7.5687    4.7288 H     550  UNL550      0.2090
   3301 O          14.9615    6.9089    7.6633 O.3   551  UNL551     -0.3982
   3302 C          13.5457    6.9089    7.6633 C.3   551  UNL551      0.0330
   3303 H          13.1804    5.9236    7.9636 H     551  UNL551      0.0521
   3304 H          13.1805    7.1555    6.6634 H     551  UNL551      0.0521
   3305 H          13.1904    7.6589    8.3738 H     551  UNL551      0.0521
   3306 H          15.2472    6.2341    7.0241 H     551  UNL551      0.2090
   3307 O          14.4125    6.3515    9.6126 O.3   552  UNL552     -0.3982
   3308 C          13.6122    7.0534   10.5461 C.3   552  UNL552      0.0330
   3309 H          13.2384    6.3584   11.3021 H     552  UNL552      0.0521
   3310 H          12.7761    7.5277   10.0266 H     552  UNL552      0.0521
   3311 H          14.2209    7.8212   11.0294 H     552  UNL552      0.0521
   3312 H          13.8457    5.6776    9.2001 H     552  UNL552      0.2090
   3313 O          16.7615    6.7511   12.8689 O.3   553  UNL553     -0.3982
   3314 C          15.3457    6.7511   12.8689 C.3   553  UNL553      0.0330
   3315 H          14.9804    7.7603   13.0749 H     553  UNL553      0.0521
   3316 H          14.9805    6.0574   13.6301 H     553  UNL553      0.0521
   3317 H          14.9904    6.4308   11.8867 H     553  UNL553      0.0521
   3318 H          17.0472    7.0392   13.7526 H     553  UNL553      0.2090
   3319 O          16.7615    6.9426   15.7901 O.3   554  UNL554     -0.3982
   3320 C          15.3457    6.9426   15.7901 C.3   554  UNL554      0.0330
   3321 H          14.9804    6.1736   16.4753 H     554  UNL554      0.0521
   3322 H          14.9805    6.7479   14.7788 H     554  UNL554      0.0521
   3323 H          14.9904    7.9212   16.1213 H     554  UNL554      0.0521
   3324 H          17.0472    6.0622   15.4921 H     554  UNL554      0.2090
   3325 O          16.3784    6.9426   17.6436 O.3   555  UNL555     -0.3982
   3326 C          15.5171    6.9426   18.7672 C.3   555  UNL555      0.0330
   3327 H          15.8387    6.1736   19.4740 H     555  UNL555      0.0521
   3328 H          14.4923    6.7479   18.4419 H     555  UNL555      0.0521
   3329 H          15.5638    7.9212   19.2507 H     555  UNL555      0.0521
   3330 H          16.3157    6.0622   17.2355 H     555  UNL555      0.2090
   3331 O          16.7615    6.9426   22.0452 O.3   556  UNL556     -0.3982
   3332 C          15.3457    6.9426   22.0452 C.3   556  UNL556      0.0330
   3333 H          14.9804    6.1736   22.7304 H     556  UNL556      0.0521
   3334 H          14.9805    6.7479   21.0339 H     556  UNL556      0.0521
   3335 H          14.9904    7.9212   22.3764 H     556  UNL556      0.0521
   3336 H          17.0472    6.0622   21.7472 H     556  UNL556      0.2090
   3337 O          16.7615    9.5175   -0.7151 O.3   557  UNL557     -0.3982
   3338 C          15.3457    9.5175   -0.7151 C.3   557  UNL557      0.0330
   3339 H          14.9804   10.4607   -1.1289 H     557  UNL557      0.0521
   3340 H          14.9805    9.3899    0.3069 H     557  UNL557      0.0521
   3341 H          14.9904    8.6893   -1.3327 H     557  UNL557      0.0521
   3342 H          17.0472   10.2626   -0.1594 H     557  UNL557      0.2090
   3343 O          14.7615    9.4967    2.0509 O.3   558  UNL558     -0.3982
   3344 C          13.3457    9.4967    2.0509 C.3   558  UNL558      0.0330
   3345 H          12.9804   10.2835    1.3862 H     558  UNL558      0.0521
   3346 H          12.9805    9.6646    3.0670 H     558  UNL558      0.0521
   3347 H          12.9904    8.5272    1.6940 H     558  UNL558      0.0521
   3348 H          15.0472   10.3689    2.3720 H     558  UNL558      0.2090
   3349 O          16.7615    9.5319    4.7234 O.3   559  UNL559     -0.3982
   3350 C          15.3457    9.5319    4.7234 C.3   559  UNL559      0.0330
   3351 H          14.9804   10.5247    4.4493 H     559  UNL559      0.0521
   3352 H          14.9805    9.2589    5.7165 H     559  UNL559      0.0521
   3353 H          14.9904    8.8009    3.9934 H     559  UNL559      0.0521
   3354 H          17.0472   10.1895    5.3803 H     559  UNL559      0.2090
   3355 O          15.3615    9.7839    7.6074 O.3   560  UNL560     -0.3982
   3356 C          13.9457    9.7839    7.6074 C.3   560  UNL560      0.0330
   3357 H          13.5804    9.0149    8.2926 H     560  UNL560      0.0521
   3358 H          13.5805    9.5892    6.5961 H     560  UNL560      0.0521
   3359 H          13.5904   10.7625    7.9386 H     560  UNL560      0.0521
   3360 H          15.6472    8.9035    7.3094 H     560  UNL560      0.2090
   3361 O          14.5289    9.4180   10.4940 O.3   561  UNL561     -0.3982
   3362 C          13.1278    9.5519   10.3413 C.3   561  UNL561      0.0330
   3363 H          12.8629    9.4396    9.2870 H     561  UNL561      0.0521
   3364 H          12.8130   10.5332   10.7045 H     561  UNL561      0.0521
   3365 H          12.6307    8.7733   10.9246 H     561  UNL561      0.0521
   3366 H          14.9425   10.1217    9.9656 H     561  UNL561      0.2090
   3367 O          14.7615    9.5944   13.1591 O.3   562  UNL562     -0.3982
   3368 C          13.3457    9.5944   13.1591 C.3   562  UNL562      0.0330
   3369 H          12.9804    8.8901   12.4076 H     562  UNL562      0.0521
   3370 H          12.9805   10.6005   12.9391 H     562  UNL562      0.0521
   3371 H          12.9904    9.2880   14.1458 H     562  UNL562      0.0521
   3372 H          15.0472    9.8702   12.2715 H     562  UNL562      0.2090
   3373 O          16.7615    9.5319   15.6336 O.3   563  UNL563     -0.3982
   3374 C          15.3457    9.5319   15.6336 C.3   563  UNL563      0.0330
   3375 H          14.9804   10.5247   15.3595 H     563  UNL563      0.0521
   3376 H          14.9805    9.2589   16.6267 H     563  UNL563      0.0521
   3377 H          14.9904    8.8009   14.9036 H     563  UNL563      0.0521
   3378 H          17.0472   10.1895   16.2905 H     563  UNL563      0.2090
   3379 O          13.5623    8.5639   18.3612 O.3   564  UNL564     -0.3982
   3380 C          13.5810    9.9796   18.3612 C.3   564  UNL564      0.0330
   3381 H          14.5786   10.3317   18.0870 H     564  UNL564      0.0521
   3382 H          13.3130   10.3484   19.3542 H     564  UNL564      0.0521
   3383 H          12.8548   10.3445   17.6311 H     564  UNL564      0.0521
   3384 H          14.2161    8.2696   19.0180 H     564  UNL564      0.2090
   3385 O          13.7295   10.6854   21.9000 O.3   565  UNL565     -0.3982
   3386 C          13.7399    9.2844   22.1038 C.3   565  UNL565      0.0330
   3387 H          12.7258    8.9393   22.3204 H     565  UNL565      0.0521
   3388 H          14.4046    9.0414   22.9363 H     565  UNL565      0.0521
   3389 H          14.1025    8.7960   21.1963 H     565  UNL565      0.0521
   3390 H          13.4035   11.0912   22.7213 H     565  UNL565      0.2090
   3391 O          16.5794   13.0750   -0.7954 O.3   566  UNL566     -0.3982
   3392 C          15.3753   12.4291   -0.4249 C.3   566  UNL566      0.0330
   3393 H          15.5894   11.3992   -0.1287 H     566  UNL566      0.0521
   3394 H          14.6806   12.4400   -1.2683 H     566  UNL566      0.0521
   3395 H          14.9302   12.9633    0.4178 H     566  UNL566      0.0521
   3396 H          16.9509   12.5789   -1.5447 H     566  UNL566      0.2090
   3397 O          16.5267   12.2517    1.4544 O.3   567  UNL567     -0.3982
   3398 C          15.5477   12.4919    2.4486 C.3   567  UNL567      0.0330
   3399 H          14.6703   11.8699    2.2550 H     567  UNL567      0.0521
   3400 H          15.2682   13.5482    2.4381 H     567  UNL567      0.0521
   3401 H          15.9639   12.2371    3.4260 H     567  UNL567      0.0521
   3402 H          16.1288   12.4867    0.5989 H     567  UNL567      0.2090
   3403 O          16.7615   12.6252    4.8799 O.3   568  UNL568     -0.3982
   3404 C          15.3457   12.6252    4.8799 C.3   568  UNL568      0.0330
   3405 H          14.9804   11.8562    5.5651 H     568  UNL568      0.0521
   3406 H          14.9805   12.4305    3.8686 H     568  UNL568      0.0521
   3407 H          14.9904   13.6038    5.2111 H     568  UNL568      0.0521
   3408 H          17.0472   11.7448    4.5819 H     568  UNL568      0.2090
   3409 O          16.2988   12.8706    8.3674 O.3   569  UNL569     -0.3982
   3410 C          15.4623   12.5535    7.2700 C.3   569  UNL569      0.0330
   3411 H          14.6088   11.9668    7.6188 H     569  UNL569      0.0521
   3412 H          16.0308   11.9850    6.5299 H     569  UNL569      0.0521
   3413 H          15.1036   13.4807    6.8170 H     569  UNL569      0.0521
   3414 H          16.6015   12.0288    8.7486 H     569  UNL569      0.2090
   3415 O          16.7615   12.3361   10.3333 O.3   570  UNL570     -0.3982
   3416 C          15.3457   12.3361   10.3333 C.3   570  UNL570      0.0330
   3417 H          14.9804   12.5425    9.3242 H     570  UNL570      0.0521
   3418 H          14.9805   13.0971   11.0273 H     570  UNL570      0.0521
   3419 H          14.9904   11.3538   10.6533 H     570  UNL570      0.0521
   3420 H          17.0472   13.2199   10.0455 H     570  UNL570      0.2090
   3421 O          16.0963   11.9346   13.8595 O.3   571  UNL571     -0.3982
   3422 C          15.4055   12.6846   12.8773 C.3   571  UNL571      0.0330
   3423 H          15.2007   12.0508   12.0108 H     571  UNL571      0.0521
   3424 H          16.0127   13.5427   12.5791 H     571  UNL571      0.0521
   3425 H          14.4615   13.0379   13.2988 H     571  UNL571      0.0521
   3426 H          16.9290   11.6348   13.4568 H     571  UNL571      0.2090
   3427 O          16.5893   11.8791   15.7901 O.3   572  UNL572     -0.3982
   3428 C          15.5249   12.8126   15.7901 C.3   572  UNL572      0.0330
   3429 H          14.7432   12.4754   16.4753 H     572  UNL572      0.0521
   3430 H          15.1219   12.9070   14.7788 H     572  UNL572      0.0521
   3431 H          15.9030   13.7826   16.1213 H     572  UNL572      0.0521
   3432 H          16.2235   11.0288   15.4921 H     572  UNL572      0.2090
   3433 O          16.3909   12.7663   19.2453 O.3   573  UNL573     -0.3982
   3434 C          15.4092   12.2556   18.3621 C.3   573  UNL573      0.0330
   3435 H          15.8908   11.8945   17.4500 H     573  UNL573      0.0521
   3436 H          14.6906   13.0425   18.1204 H     573  UNL573      0.0521
   3437 H          14.8892   11.4275   18.8493 H     573  UNL573      0.0521
   3438 H          16.8352   13.4990   18.7858 H     573  UNL573      0.2090
   3439 O          14.6801   12.4740   22.4148 O.3   574  UNL574     -0.3982
   3440 C          15.9497   12.2961   21.8141 C.3   574  UNL574      0.0330
   3441 H          16.7314   12.4265   22.5666 H     574  UNL574      0.0521
   3442 H          16.0784   13.0243   21.0096 H     574  UNL574      0.0521
   3443 H          16.0091   11.2863   21.4014 H     574  UNL574      0.0521
   3444 H          14.6571   13.3783   22.7717 H     574  UNL574      0.2090
   3445 O          14.2222   15.9859   -1.2976 O.3   575  UNL575     -0.3982
   3446 C          13.4220   15.2840   -0.3641 C.3   575  UNL575      0.0330
   3447 H          14.0623   14.8227    0.3919 H     575  UNL575      0.0521
   3448 H          12.8426   14.5169   -0.8836 H     575  UNL575      0.0521
   3449 H          12.7401   15.9876    0.1192 H     575  UNL575      0.0521
   3450 H          14.8165   15.3361   -1.7101 H     575  UNL575      0.2090
   3451 O          14.7821   14.8344    1.7406 O.3   576  UNL576     -0.3982
   3452 C          16.0518   15.3054    2.1537 C.3   576  UNL576      0.0330
   3453 H          16.0391   15.4936    3.2302 H     576  UNL576      0.0521
   3454 H          16.2931   16.2250    1.6151 H     576  UNL576      0.0521
   3455 H          16.8034   14.5455    1.9277 H     576  UNL576      0.0521
   3456 H          14.1363   15.5294    1.9538 H     576  UNL576      0.2090
   3457 O          16.4231   14.5309    4.7234 O.3   577  UNL577     -0.3982
   3458 C          15.3587   15.4645    4.7234 C.3   577  UNL577      0.0330
   3459 H          15.7387   16.4517    4.4493 H     577  UNL577      0.0521
   3460 H          14.9042   15.5001    5.7165 H     577  UNL577      0.0521
   3461 H          14.6096   15.1492    3.9934 H     577  UNL577      0.0521
   3462 H          17.0715   14.8369    5.3803 H     577  UNL577      0.2090
   3463 O          14.7615   15.1857    7.6261 O.3   578  UNL578     -0.3982
   3464 C          13.3457   15.1857    7.6261 C.3   578  UNL578      0.0330
   3465 H          12.9804   15.2451    6.5978 H     578  UNL578      0.0521
   3466 H          12.9805   16.0383    8.2036 H     578  UNL578      0.0521
   3467 H          12.9904   14.2594    8.0837 H     578  UNL578      0.0521
   3468 H          15.0472   16.0190    7.2144 H     578  UNL578      0.2090
   3469 O          14.7553   15.8832   10.2100 O.3   579  UNL579     -0.3982
   3470 C          15.8733   15.0489   10.4516 C.3   579  UNL579      0.0330
   3471 H          16.7227   15.6590   10.7686 H     579  UNL579      0.0521
   3472 H          16.1243   14.5014    9.5399 H     579  UNL579      0.0521
   3473 H          15.6222   14.3387   11.2430 H     579  UNL579      0.0521
   3474 H          15.0080   16.5021    9.5039 H     579  UNL579      0.2090
   3475 O          16.7615   15.4665   13.0625 O.3   580  UNL580     -0.3982
   3476 C          15.3457   15.4665   13.0625 C.3   580  UNL580      0.0330
   3477 H          14.9804   14.6975   13.7477 H     580  UNL580      0.0521
   3478 H          14.9805   15.2718   12.0512 H     580  UNL580      0.0521
   3479 H          14.9904   16.4451   13.3937 H     580  UNL580      0.0521
   3480 H          17.0472   14.5861   12.7645 H     580  UNL580      0.2090
   3481 O          14.6817   14.9024   15.7868 O.3   581  UNL581     -0.3982
   3482 C          16.0298   15.3252   15.8770 C.3   581  UNL581      0.0330
   3483 H          16.0632   16.3926   16.1089 H     581  UNL581      0.0521
   3484 H          16.5376   15.1314   14.9290 H     581  UNL581      0.0521
   3485 H          16.5251   14.7657   16.6740 H     581  UNL581      0.0521
   3486 H          14.2685   15.4159   15.0718 H     581  UNL581      0.2090
   3487 O          16.7615   15.3557   18.3203 O.3   582  UNL582     -0.3982
   3488 C          15.3457   15.3557   18.3203 C.3   582  UNL582      0.0330
   3489 H          14.9804   16.1173   19.0137 H     582  UNL582      0.0521
   3490 H          14.9805   14.3702   18.6193 H     582  UNL582      0.0521
   3491 H          14.9904   15.5832   17.3125 H     582  UNL582      0.0521
   3492 H          17.0472   15.1511   19.2269 H     582  UNL582      0.2090
   3493 O          16.3318   14.7017   21.5805 O.3   583  UNL583     -0.3982
   3494 C          15.4218   15.5843   22.2108 C.3   583  UNL583      0.0330
   3495 H          15.9702   16.2742   22.8571 H     583  UNL583      0.0521
   3496 H          14.7037   15.0089   22.8001 H     583  UNL583      0.0521
   3497 H          14.8890   16.1521   21.4445 H     583  UNL583      0.0521
   3498 H          16.7893   14.2120   22.2851 H     583  UNL583      0.2090
   3499 O          16.1704   19.0640   -0.2547 O.3   584  UNL584     -0.3982
   3500 C          15.3792   18.0075   -0.7668 C.3   584  UNL584      0.0330
   3501 H          15.2675   17.2322   -0.0048 H     584  UNL584      0.0521
   3502 H          15.8569   17.5919   -1.6574 H     584  UNL584      0.0521
   3503 H          14.3943   18.3982   -1.0332 H     584  UNL584      0.0521
   3504 H          17.0376   18.6872   -0.0274 H     584  UNL584      0.2090
   3505 O          14.7821   17.5575    2.1523 O.3   585  UNL585     -0.3982
   3506 C          16.0518   18.1840    2.1523 C.3   585  UNL585      0.0330
   3507 H          16.0391   19.0352    2.8375 H     585  UNL585      0.0521
   3508 H          16.2931   18.5202    1.1410 H     585  UNL585      0.0521
   3509 H          16.8034   17.4636    2.4835 H     585  UNL585      0.0521
   3510 H          14.1363   18.2205    1.8543 H     585  UNL585      0.2090
   3511 O          16.7615   18.2993    4.9001 O.3   586  UNL586     -0.3982
   3512 C          15.3457   18.2993    4.9001 C.3   586  UNL586      0.0330
   3513 H          14.9804   17.4399    5.4678 H     586  UNL586      0.0521
   3514 H          14.9805   18.2517    3.8713 H     586  UNL586      0.0521
   3515 H          14.9904   19.2202    5.3683 H     586  UNL586      0.0521
   3516 H          17.0472   17.4707    4.4788 H     586  UNL586      0.2090
   3517 O          14.9615   18.3078    7.6074 O.3   587  UNL587     -0.3982
   3518 C          13.5457   18.3078    7.6074 C.3   587  UNL587      0.0330
   3519 H          13.1804   17.5388    8.2926 H     587  UNL587      0.0521
   3520 H          13.1805   18.1131    6.5961 H     587  UNL587      0.0521
   3521 H          13.1904   19.2864    7.9386 H     587  UNL587      0.0521
   3522 H          15.2472   17.4274    7.3094 H     587  UNL587      0.2090
   3523 O          14.7893   18.2095    9.6841 O.3   588  UNL588     -0.3982
   3524 C          13.7249   18.0634   10.6061 C.3   588  UNL588      0.0330
   3525 H          12.9432   17.4394   10.1658 H     588  UNL588      0.0521
   3526 H          13.3219   19.0474   10.8577 H     588  UNL588      0.0521
   3527 H          14.1030   17.5844   11.5123 H     588  UNL588      0.0521
   3528 H          14.4235   18.6370    8.8909 H     588  UNL588      0.2090
   3529 O          15.1615   18.0126   13.0338 O.3   589  UNL589     -0.3982
   3530 C          13.7457   18.0126   13.0338 C.3   589  UNL589      0.0330
   3531 H          13.3804   18.3989   12.0790 H     589  UNL589      0.0521
   3532 H          13.3805   18.6347   13.8545 H     589  UNL589      0.0521
   3533 H          13.3904   16.9884   13.1698 H     589  UNL589      0.0521
   3534 H          15.4472   18.9339   12.9114 H     589  UNL589      0.2090
   3535 O          16.7615   18.0558   15.6336 O.3   590  UNL590     -0.3982
   3536 C          15.3457   18.0558   15.6336 C.3   590  UNL590      0.0330
   3537 H          14.9804   19.0486   15.3595 H     590  UNL590      0.0521
   3538 H          14.9805   17.7828   16.6267 H     590  UNL590      0.0521
   3539 H          14.9904   17.3248   14.9036 H     590  UNL590      0.0521
   3540 H          17.0472   18.7134   16.2905 H     590  UNL590      0.2090
   3541 O          14.7615   18.1535   18.3169 O.3   591  UNL591     -0.3982
   3542 C          13.3457   18.1535   18.3169 C.3   591  UNL591      0.0330
   3543 H          12.9804   19.0806   18.7654 H     591  UNL591      0.0521
   3544 H          12.9805   17.2935   18.8835 H     591  UNL591      0.0521
   3545 H          12.9904   18.0853   17.2860 H     591  UNL591      0.0521
   3546 H          15.0472   18.2148   19.2443 H     591  UNL591      0.2090
   3547 O          14.7615   18.0558   21.8887 O.3   592  UNL592     -0.3982
   3548 C          13.3457   18.0558   21.8887 C.3   592  UNL592      0.0330
   3549 H          12.9804   19.0486   21.6146 H     592  UNL592      0.0521
   3550 H          12.9805   17.7828   22.8818 H     592  UNL592      0.0521
   3551 H          12.9904   17.3248   21.1587 H     592  UNL592      0.0521
   3552 H          15.0472   18.7134   22.5456 H     592  UNL592      0.2090
   3553 O          16.7615   20.8528   -0.6339 O.3   593  UNL593     -0.3982
   3554 C          15.3457   20.8528   -0.6339 C.3   593  UNL593      0.0330
   3555 H          14.9804   21.4185   -1.4947 H     593  UNL593      0.0521
   3556 H          14.9805   21.3025    0.2927 H     593  UNL593      0.0521
   3557 H          14.9904   19.8219   -0.7007 H     593  UNL593      0.0521
   3558 H          17.0472   21.7804   -0.5737 H     593  UNL593      0.2090
   3559 O          14.7615   20.8971    1.9959 O.3   594  UNL594     -0.3982
   3560 C          13.3457   20.8971    1.9959 C.3   594  UNL594      0.0330
   3561 H          12.9804   21.8899    1.7217 H     594  UNL594      0.0521
   3562 H          12.9805   20.6241    2.9889 H     594  UNL594      0.0521
   3563 H          12.9904   20.1661    1.2658 H     594  UNL594      0.0521
   3564 H          15.0472   21.5547    2.6527 H     594  UNL594      0.2090
   3565 O          16.7615   20.8971    4.7234 O.3   595  UNL595     -0.3982
   3566 C          15.3457   20.8971    4.7234 C.3   595  UNL595      0.0330
   3567 H          14.9804   21.8899    4.4493 H     595  UNL595      0.0521
   3568 H          14.9805   20.6241    5.7165 H     595  UNL595      0.0521
   3569 H          14.9904   20.1661    3.9934 H     595  UNL595      0.0521
   3570 H          17.0472   21.5547    5.3803 H     595  UNL595      0.2090
   3571 O          14.7615   21.1454    7.5002 O.3   596  UNL596     -0.3982
   3572 C          13.3457   21.1454    7.5002 C.3   596  UNL596      0.0330
   3573 H          12.9804   21.0191    8.5224 H     596  UNL596      0.0521
   3574 H          12.9805   20.3322    6.8683 H     596  UNL596      0.0521
   3575 H          12.9904   22.0996    7.1039 H     596  UNL596      0.0521
   3576 H          15.0472   20.2871    7.8567 H     596  UNL596      0.2090
   3577 O          16.2889   21.5657   10.7233 O.3   597  UNL597     -0.3982
   3578 C          15.1388   21.0711   10.0622 C.3   597  UNL597      0.0330
   3579 H          15.3954   20.1609    9.5145 H     597  UNL597      0.0521
   3580 H          14.7595   21.8292    9.3727 H     597  UNL597      0.0521
   3581 H          14.3722   20.8421   10.8061 H     597  UNL597      0.0521
   3582 H          16.9510   21.7599   10.0382 H     597  UNL597      0.2090
   3583 O          13.7217   19.9305   13.1812 O.3   598  UNL598     -0.3982
   3584 C          13.8150   21.2983   12.8276 C.3   598  UNL598      0.0330
   3585 H          14.1031   21.8834   13.7045 H     598  UNL598      0.0521
   3586 H          12.8509   21.6436   12.4466 H     598  UNL598      0.0521
   3587 H          14.5740   21.4133   12.0502 H     598  UNL598      0.0521
   3588 H          13.0411   19.8598   13.8721 H     598  UNL598      0.2090
   3589 O          15.3615   21.1491   15.7901 O.3   599  UNL599     -0.3982
   3590 C          13.9457   21.1491   15.7901 C.3   599  UNL599      0.0330
   3591 H          13.5804   20.3801   16.4753 H     599  UNL599      0.0521
   3592 H          13.5805   20.9544   14.7788 H     599  UNL599      0.0521
   3593 H          13.5904   22.1277   16.1213 H     599  UNL599      0.0521
   3594 H          15.6472   20.2687   15.4921 H     599  UNL599      0.2090
   3595 O          14.8012   20.7576   18.1780 O.3   600  UNL600     -0.3982
   3596 C          16.1989   20.9832   18.1849 C.3   600  UNL600      0.0330
   3597 H          16.7089   20.1294   17.7318 H     600  UNL600      0.0521
   3598 H          16.5413   21.1221   19.2132 H     600  UNL600      0.0521
   3599 H          16.4163   21.8839   17.6060 H     600  UNL600      0.0521
   3600 H          14.6391   19.9527   18.6990 H     600  UNL600      0.2090
   3601 O          15.2755   21.9252   20.7849 O.3   601  UNL601     -0.3982
   3602 C          15.9201   20.8449   21.4343 C.3   601  UNL601      0.0330
   3603 H          16.4501   20.2383   20.6957 H     601  UNL601      0.0521
   3604 H          15.1772   20.2364   21.9558 H     601  UNL601      0.0521
   3605 H          16.6360   21.2415   22.1581 H     601  UNL601      0.0521
   3606 H          14.6469   21.5425   20.1494 H     601  UNL601      0.2090
   3607 O          16.7615   23.9904   -0.5752 O.3   602  UNL602     -0.3982
   3608 C          15.3457   23.9904   -0.5752 C.3   602  UNL602      0.0330
   3609 H          14.9804   23.2214    0.1100 H     602  UNL602      0.0521
   3610 H          14.9805   23.7957   -1.5865 H     602  UNL602      0.0521
   3611 H          14.9904   24.9690   -0.2440 H     602  UNL602      0.0521
   3612 H          17.0472   23.1100   -0.8732 H     602  UNL602      0.2090
   3613 O          16.2861   24.4242    2.8016 O.3   603  UNL603     -0.3982
   3614 C          15.4369   23.8471    1.8267 C.3   603  UNL603      0.0330
   3615 H          14.6984   23.2084    2.3176 H     603  UNL603      0.0521
   3616 H          16.0334   23.2595    1.1246 H     603  UNL603      0.0521
   3617 H          14.9231   24.6452    1.2858 H     603  UNL603      0.0521
   3618 H          16.7280   23.6923    3.2648 H     603  UNL603      0.2090
   3619 O          16.7615   23.9904    4.8799 O.3   604  UNL604     -0.3982
   3620 C          15.3457   23.9904    4.8799 C.3   604  UNL604      0.0330
   3621 H          14.9804   23.2214    5.5651 H     604  UNL604      0.0521
   3622 H          14.9805   23.7957    3.8686 H     604  UNL604      0.0521
   3623 H          14.9904   24.9690    5.2111 H     604  UNL604      0.0521
   3624 H          17.0472   23.1100    4.5819 H     604  UNL604      0.2090
   3625 O          14.9615   23.9904    7.6074 O.3   605  UNL605     -0.3982
   3626 C          13.5457   23.9904    7.6074 C.3   605  UNL605      0.0330
   3627 H          13.1804   23.2214    8.2926 H     605  UNL605      0.0521
   3628 H          13.1805   23.7957    6.5961 H     605  UNL605      0.0521
   3629 H          13.1904   24.9690    7.9386 H     605  UNL605      0.0521
   3630 H          15.2472   23.1100    7.3094 H     605  UNL605      0.2090
   3631 O          14.4620   23.2913   10.8067 O.3   606  UNL606     -0.3982
   3632 C          13.3976   24.0809   10.3086 C.3   606  UNL606      0.0330
   3633 H          12.6711   23.4386    9.8046 H     606  UNL606      0.0521
   3634 H          13.7898   24.8237    9.6098 H     606  UNL606      0.0521
   3635 H          12.9121   24.5905   11.1441 H     606  UNL606      0.0521
   3636 H          14.8733   22.8517   10.0431 H     606  UNL606      0.2090
   3637 O          16.7418   23.8760   12.7599 O.3   607  UNL607     -0.3982
   3638 C          15.4051   23.9884   13.2128 C.3   607  UNL607      0.0330
   3639 H          15.0998   23.0518   13.6860 H     607  UNL607      0.0521
   3640 H          14.7505   24.2119   12.3668 H     607  UNL607      0.0521
   3641 H          15.3440   24.7995   13.9421 H     607  UNL607      0.0521
   3642 H          16.7647   23.1490   12.1146 H     607  UNL607      0.2090
   3643 O          14.5565   23.6425   15.0109 O.3   608  UNL608     -0.3982
   3644 C          15.8261   23.7324   15.6309 C.3   608  UNL608      0.0330
   3645 H          15.6996   23.7998   16.7143 H     608  UNL608      0.0521
   3646 H          16.3524   24.6149   15.2592 H     608  UNL608      0.0521
   3647 H          16.4040   22.8374   15.3887 H     608  UNL608      0.0521
   3648 H          14.0671   24.4498   15.2436 H     608  UNL608      0.2090
   3649 O          16.7615   23.7194   18.3843 O.3   609  UNL609     -0.3982
   3650 C          15.3457   23.7194   18.3843 C.3   609  UNL609      0.0330
   3651 H          14.9804   24.6394   17.9213 H     609  UNL609      0.0521
   3652 H          14.9805   23.6459   19.4116 H     609  UNL609      0.0521
   3653 H          14.9904   22.8597   17.8113 H     609  UNL609      0.0521
   3654 H          17.0472   24.4928   18.8999 H     609  UNL609      0.2090
   3655 O          16.4452   24.5429   21.8513 O.3   610  UNL610     -0.3982
   3656 C          15.3808   23.6478   22.1164 C.3   610  UNL610      0.0330
   3657 H          14.7543   24.0518   22.9156 H     610  UNL610      0.0521
   3658 H          15.7853   22.6766   22.4117 H     610  UNL610      0.0521
   3659 H          14.7814   23.5303   21.2106 H     610  UNL610      0.0521
   3660 H          16.9589   24.6272   22.6726 H     610  UNL610      0.2090
   3661 O          15.1263   26.8317   -1.2976 O.3   611  UNL611     -0.3982
   3662 C          14.0619   26.8317   -0.3641 C.3   611  UNL611      0.0330
   3663 H          14.2391   26.0627    0.3919 H     611  UNL611      0.0521
   3664 H          13.1205   26.6370   -0.8836 H     611  UNL611      0.0521
   3665 H          14.0132   27.8103    0.1192 H     611  UNL611      0.0521
   3666 H          15.1446   25.9513   -1.7101 H     611  UNL611      0.2090
   3667 O          14.7615   26.8317    2.1523 O.3   612  UNL612     -0.3982
   3668 C          13.3457   26.8317    2.1523 C.3   612  UNL612      0.0330
   3669 H          12.9804   26.0627    2.8375 H     612  UNL612      0.0521
   3670 H          12.9805   26.6370    1.1410 H     612  UNL612      0.0521
   3671 H          12.9904   27.8103    2.4835 H     612  UNL612      0.0521
   3672 H          15.0472   25.9513    1.8543 H     612  UNL612      0.2090
   3673 O          15.3615   26.8317    4.8799 O.3   613  UNL613     -0.3982
   3674 C          13.9457   26.8317    4.8799 C.3   613  UNL613      0.0330
   3675 H          13.5804   26.0627    5.5651 H     613  UNL613      0.0521
   3676 H          13.5805   26.6370    3.8686 H     613  UNL613      0.0521
   3677 H          13.5904   27.8103    5.2111 H     613  UNL613      0.0521
   3678 H          15.6472   25.9513    4.5819 H     613  UNL613      0.2090
   3679 O          14.7615   26.8317    7.6074 O.3   614  UNL614     -0.3982
   3680 C          13.3457   26.8317    7.6074 C.3   614  UNL614      0.0330
   3681 H          12.9804   26.0627    8.2926 H     614  UNL614      0.0521
   3682 H          12.9805   26.6370    6.5961 H     614  UNL614      0.0521
   3683 H          12.9904   27.8103    7.9386 H     614  UNL614      0.0521
   3684 H          15.0472   25.9513    7.3094 H     614  UNL614      0.2090
   3685 O          14.7615   26.8317   10.3350 O.3   615  UNL615     -0.3982
   3686 C          13.3457   26.8317   10.3350 C.3   615  UNL615      0.0330
   3687 H          12.9804   26.0627   11.0202 H     615  UNL615      0.0521
   3688 H          12.9805   26.6370    9.3237 H     615  UNL615      0.0521
   3689 H          12.9904   27.8103   10.6662 H     615  UNL615      0.0521
   3690 H          15.0472   25.9513   10.0370 H     615  UNL615      0.2090
   3691 O          14.7615   26.8317   13.0625 O.3   616  UNL616     -0.3982
   3692 C          13.3457   26.8317   13.0625 C.3   616  UNL616      0.0330
   3693 H          12.9804   26.0627   13.7477 H     616  UNL616      0.0521
   3694 H          12.9805   26.6370   12.0512 H     616  UNL616      0.0521
   3695 H          12.9904   27.8103   13.3937 H     616  UNL616      0.0521
   3696 H          15.0472   25.9513   12.7645 H     616  UNL616      0.2090
   3697 O          14.4620   26.3033   16.3980 O.3   617  UNL617     -0.3982
   3698 C          13.3976   26.9189   15.6961 C.3   617  UNL617      0.0330
   3699 H          12.6711   26.1599   15.3952 H     617  UNL617      0.0521
   3700 H          13.7898   27.4326   14.8151 H     617  UNL617      0.0521
   3701 H          12.9121   27.6449   16.3525 H     617  UNL617      0.0521
   3702 H          14.8733   25.6649   15.7906 H     617  UNL617      0.2090
   3703 O          14.7615   26.7637   18.6006 O.3   618  UNL618     -0.3982
   3704 C          13.3457   26.7637   18.6006 C.3   618  UNL618      0.0330
   3705 H          12.9804   25.7337   18.6087 H     618  UNL618      0.0521
   3706 H          12.9805   27.2841   17.7119 H     618  UNL618      0.0521
   3707 H          12.9904   27.2810   19.4949 H     618  UNL618      0.0521
   3708 H          15.0472   26.2983   17.7961 H     618  UNL618      0.2090
   3709 O          14.4620   26.8317   22.9434 O.3   619  UNL619     -0.3982
   3710 C          13.3976   26.8317   22.0098 C.3   619  UNL619      0.0330
   3711 H          12.6711   26.0627   22.2841 H     619  UNL619      0.0521
   3712 H          13.7898   26.6370   21.0087 H     619  UNL619      0.0521
   3713 H          12.9121   27.8103   22.0245 H     619  UNL619      0.0521
   3714 H          14.8733   25.9513   22.9077 H     619  UNL619      0.2090
   3715 O          16.4688   30.0391   -0.0694 O.3   620  UNL620     -0.3982
   3716 C          15.3755   29.5561   -0.8282 C.3   620  UNL620      0.0330
   3717 H          14.7555   28.9079   -0.2040 H     620  UNL620      0.0521
   3718 H          15.7478   29.0003   -1.6922 H     620  UNL620      0.0521
   3719 H          14.7797   30.4046   -1.1728 H     620  UNL620      0.0521
   3720 H          16.9786   29.2642    0.2224 H     620  UNL620      0.2090
   3721 O          16.5615   29.5831    1.7613 O.3   621  UNL621     -0.3982
   3722 C          15.1457   29.5831    1.7613 C.3   621  UNL621      0.0330
   3723 H          14.7804   30.2377    2.5565 H     621  UNL621      0.0521
   3724 H          14.7805   28.5650    1.9162 H     621  UNL621      0.0521
   3725 H          14.7904   29.9524    0.7964 H     621  UNL621      0.0521
   3726 H          16.8472   29.2509    2.6293 H     621  UNL621      0.2090
   3727 O          16.5615   29.4970    4.7800 O.3   622  UNL622     -0.3982
   3728 C          15.1457   29.4970    4.7800 C.3   622  UNL622      0.0330
   3729 H          14.7804   28.7269    4.0961 H     622  UNL622      0.0521
   3730 H          14.7805   30.4788    4.4688 H     622  UNL622      0.0521
   3731 H          14.7904   29.2821    5.7905 H     622  UNL622      0.0521
   3732 H          16.8472   29.6904    3.8709 H     622  UNL622      0.2090
   3733 O          16.3957   29.1000    6.8559 O.3   623  UNL623     -0.3982
   3734 C          15.3847   29.7414    7.6115 C.3   623  UNL623      0.0330
   3735 H          15.8436   30.4270    8.3282 H     623  UNL623      0.0521
   3736 H          14.7906   28.9906    8.1383 H     623  UNL623      0.0521
   3737 H          14.7384   30.3047    6.9343 H     623  UNL623      0.0521
   3738 H          16.9529   28.6086    7.4833 H     623  UNL623      0.2090
   3739 O          16.1898   29.2396    9.3101 O.3   624  UNL624     -0.3982
   3740 C          15.1928   29.7369   10.1837 C.3   624  UNL624      0.0330
   3741 H          15.6668   30.2210   11.0411 H     624  UNL624      0.0521
   3742 H          14.5591   28.9131   10.5212 H     624  UNL624      0.0521
   3743 H          14.5824   30.4671    9.6473 H     624  UNL624      0.0521
   3744 H          16.7150   28.5946    9.8136 H     624  UNL624      0.2090
   3745 O          15.0074   28.9165   12.4216 O.3   625  UNL625     -0.3982
   3746 C          15.9591   29.7782   13.0183 C.3   625  UNL625      0.0330
   3747 H          16.6489   29.1924   13.6309 H     625  UNL625      0.0521
   3748 H          15.4449   30.5184   13.6362 H     625  UNL625      0.0521
   3749 H          16.5185   30.2893   12.2312 H     625  UNL625      0.0521
   3750 H          14.5270   28.4774   13.1440 H     625  UNL625      0.2090
   3751 O          14.6240   29.9606   15.0344 O.3   626  UNL626     -0.3982
   3752 C          15.7547   29.5710   15.7921 C.3   626  UNL626      0.0330
   3753 H          16.5854   29.3451   15.1189 H     626  UNL626      0.0521
   3754 H          15.5075   28.6910   16.3909 H     626  UNL626      0.0521
   3755 H          16.0384   30.3919   16.4548 H     626  UNL626      0.0521
   3756 H          14.3958   29.2126   14.4564 H     626  UNL626      0.2090
   3757 O          15.9032   28.4729   18.3242 O.3   627  UNL627     -0.3982
   3758 C          15.4379   29.8049   18.4407 C.3   627  UNL627      0.0330
   3759 H          16.0586   30.4636   17.8282 H     627  UNL627      0.0521
   3760 H          15.4800   30.1163   19.4873 H     627  UNL627      0.0521
   3761 H          14.4042   29.8521   18.0901 H     627  UNL627      0.0521
   3762 H          16.8220   28.4624   18.6424 H     627  UNL627      0.2090
   3763 O          16.7615   29.3977   21.1188 O.3   628  UNL628     -0.3982
   3764 C          15.3457   29.3977   21.1188 C.3   628  UNL628      0.0330
   3765 H          14.9804   30.2918   20.6074 H     628  UNL628      0.0521
   3766 H          14.9805   29.3790   22.1485 H     628  UNL628      0.0521
   3767 H          14.9904   28.5087   20.5923 H     628  UNL628      0.0521
   3768 H          17.0472   30.1974   21.5924 H     628  UNL628      0.2090
   3769 O          16.7615   32.2697   -0.5094 O.3   629  UNL629     -0.3982
   3770 C          15.3457   32.2697   -0.5094 C.3   629  UNL629      0.0330
   3771 H          14.9804   31.9307   -1.4820 H     629  UNL629      0.0521
   3772 H          14.9805   33.2786   -0.3026 H     629  UNL629      0.0521
   3773 H          14.9904   31.5895    0.2682 H     629  UNL629      0.0521
   3774 H          17.0472   32.8818   -1.2090 H     629  UNL629      0.2090
   3775 O          16.5265   31.4966    2.2477 O.3   630  UNL630     -0.3982
   3776 C          15.4621   32.4301    2.2477 C.3   630  UNL630      0.0330
   3777 H          14.5204   31.9104    2.0542 H     630  UNL630      0.0521
   3778 H          15.6387   33.1853    1.4779 H     630  UNL630      0.0521
   3779 H          15.4142   32.9143    3.2259 H     630  UNL630      0.0521
   3780 H          16.5441   31.0833    1.3677 H     630  UNL630      0.2090
   3781 O          15.6726   33.4579    4.8258 O.3   631  UNL631     -0.3982
   3782 C          15.5727   32.0541    4.6712 C.3   631  UNL631      0.0330
   3783 H          15.1108   31.6205    5.5617 H     631  UNL631      0.0521
   3784 H          16.5691   31.6313    4.5219 H     631  UNL631      0.0521
   3785 H          14.9523   31.8359    3.7988 H     631  UNL631      0.0521
   3786 H          16.2283   33.6205    5.6069 H     631  UNL631      0.2090
   3787 O          14.7615   32.5143    7.6074 O.3   632  UNL632     -0.3982
   3788 C          13.3457   32.5143    7.6074 C.3   632  UNL632      0.0330
   3789 H          12.9804   31.7453    8.2926 H     632  UNL632      0.0521
   3790 H          12.9805   32.3196    6.5961 H     632  UNL632      0.0521
   3791 H          12.9904   33.4929    7.9386 H     632  UNL632      0.0521
   3792 H          15.0472   31.6339    7.3094 H     632  UNL632      0.2090
   3793 O          16.4630   31.7533    9.8424 O.3   633  UNL633     -0.3982
   3794 C          15.3986   32.6011   10.2333 C.3   633  UNL633      0.0330
   3795 H          15.7894   33.4226   10.8389 H     633  UNL633      0.0521
   3796 H          14.6667   32.0275   10.8070 H     633  UNL633      0.0521
   3797 H          14.9203   33.0064    9.3386 H     633  UNL633      0.0521
   3798 H          16.8678   31.4090   10.6567 H     633  UNL633      0.2090
   3799 O          14.7867   32.1412   13.5843 O.3   634  UNL634     -0.3982
   3800 C          16.0195   32.2598   12.8982 C.3   634  UNL634      0.0330
   3801 H          16.5738   33.1169   13.2885 H     634  UNL634      0.0521
   3802 H          15.8316   32.3898   11.8296 H     634  UNL634      0.0521
   3803 H          16.6025   31.3493   13.0553 H     634  UNL634      0.0521
   3804 H          14.2917   32.9631   13.4265 H     634  UNL634      0.2090
   3805 O          16.4857   31.6993   15.4387 O.3   635  UNL635     -0.3982
   3806 C          15.5765   32.6543   15.9543 C.3   635  UNL635      0.0330
   3807 H          14.7395   32.1403   16.4334 H     635  UNL635      0.0521
   3808 H          15.2121   33.2875   15.1418 H     635  UNL635      0.0521
   3809 H          16.0919   33.2732   16.6925 H     635  UNL635      0.0521
   3810 H          16.0002   31.1655   14.7869 H     635  UNL635      0.2090
   3811 O          16.7615   32.2493   18.3760 O.3   636  UNL636     -0.3982
   3812 C          15.3457   32.2493   18.3760 C.3   636  UNL636      0.0330
   3813 H          14.9804   33.1983   17.9759 H     636  UNL636      0.0521
   3814 H          14.9805   32.1069   19.3960 H     636  UNL636      0.0521
   3815 H          14.9904   31.4301   17.7465 H     636  UNL636      0.0521
   3816 H          17.0472   32.9862   18.9424 H     636  UNL636      0.2090
   3817 O          16.0279   32.5269   22.6166 O.3   637  UNL637     -0.3982
   3818 C          15.4624   32.1825   21.3651 C.3   637  UNL637      0.0330
   3819 H          16.2498   31.8347   20.6918 H     637  UNL637      0.0521
   3820 H          14.9621   33.0550   20.9380 H     637  UNL637      0.0521
   3821 H          14.7328   31.3829   21.5129 H     637  UNL637      0.0521
   3822 H          16.6707   33.2381   22.4537 H     637  UNL637      0.2090
   3823 O          16.3059   35.2152   -0.7411 O.3   638  UNL638     -0.3982
   3824 C          15.9444   36.5769   -0.6011 C.3   638  UNL638      0.0330
   3825 H          15.4444   36.7253    0.3592 H     638  UNL638      0.0521
   3826 H          15.2788   36.8640   -1.4188 H     638  UNL638      0.0521
   3827 H          16.8480   37.1899   -0.6375 H     638  UNL638      0.0521
   3828 H          15.4843   34.6964   -0.7051 H     638  UNL638      0.2090
   3829 O          15.8232   35.1036    1.3123 O.3   639  UNL639     -0.3982
   3830 C          14.7588   35.1036    2.2459 C.3   639  UNL639      0.0330
   3831 H          14.3034   36.0964    2.2806 H     639  UNL639      0.0521
   3832 H          15.1390   34.8306    3.2333 H     639  UNL639      0.0521
   3833 H          14.0103   34.3726    1.9313 H     639  UNL639      0.0521
   3834 H          16.4711   35.7612    1.6177 H     639  UNL639      0.2090
   3835 O          15.3276   37.3084    5.7307 O.3   640  UNL640     -0.3982
   3836 C          15.6025   36.6653    4.4997 C.3   640  UNL640      0.0330
   3837 H          16.0276   35.6769    4.6908 H     640  UNL640      0.0521
   3838 H          16.3048   37.2699    3.9206 H     640  UNL640      0.0521
   3839 H          14.6708   36.5567    3.9397 H     640  UNL640      0.0521
   3840 H          16.1725   37.3907    6.2049 H     640  UNL640      0.2090
   3841 O          16.1647   35.8738    8.2754 O.3   641  UNL641     -0.3982
   3842 C          15.4400   35.1725    7.2817 C.3   641  UNL641      0.0330
   3843 H          14.8439   34.3860    7.7511 H     641  UNL641      0.0521
   3844 H          16.1364   34.7359    6.5617 H     641  UNL641      0.0521
   3845 H          14.7767   35.8710    6.7663 H     641  UNL641      0.0521
   3846 H          16.7441   35.2286    8.7153 H     641  UNL641      0.2090
   3847 O          14.7399   35.3556    9.7657 O.3   642  UNL642     -0.3982
   3848 C          16.0095   35.3556   10.3922 C.3   642  UNL642      0.0330
   3849 H          16.6403   34.5866    9.9394 H     642  UNL642      0.0521
   3850 H          15.8895   35.1609   11.4607 H     642  UNL642      0.0521
   3851 H          16.4747   36.3342   10.2524 H     642  UNL642      0.0521
   3852 H          14.3518   34.4752    9.9065 H     642  UNL642      0.2090
   3853 O          15.5685   37.4121   13.9133 O.3   643  UNL643     -0.3982
   3854 C          15.5489   36.7130   12.6823 C.3   643  UNL643      0.0330
   3855 H          15.5211   35.6373   12.8735 H     643  UNL643      0.0521
   3856 H          16.4398   36.9680   12.1032 H     643  UNL643      0.0521
   3857 H          14.6573   37.0044   12.1223 H     643  UNL643      0.0521
   3858 H          16.3702   37.1331   14.3876 H     643  UNL643      0.2090
   3859 O          16.5965   34.8042   16.1722 O.3   644  UNL644     -0.3982
   3860 C          15.4158   35.4672   15.7587 C.3   644  UNL644      0.0330
   3861 H          14.5773   34.7666   15.7787 H     644  UNL644      0.0521
   3862 H          15.5524   35.8598   14.7482 H     644  UNL644      0.0521
   3863 H          15.2138   36.2936   16.4441 H     644  UNL644      0.0521
   3864 H          16.7500   34.0766   15.5457 H     644  UNL644      0.2090
   3865 O          14.8028   37.1271   18.8436 O.3   645  UNL645     -0.3982
   3866 C          15.9555   36.5965   18.2157 C.3   645  UNL645      0.0330
   3867 H          15.7486   35.5804   17.8709 H     645  UNL645      0.0521
   3868 H          16.7871   36.5900   18.9244 H     645  UNL645      0.0521
   3869 H          16.2142   37.2239   17.3595 H     645  UNL645      0.0521
   3870 H          14.5977   36.5500   19.5988 H     645  UNL645      0.2090
   3871 O          15.3672   35.4560   22.2079 O.3   646  UNL646     -0.3982
   3872 C          15.8460   35.3246   20.8820 C.3   646  UNL646      0.0330
   3873 H          15.0161   35.0727   20.2172 H     646  UNL646      0.0521
   3874 H          16.6074   34.5418   20.8446 H     646  UNL646      0.0521
   3875 H          16.2866   36.2737   20.5676 H     646  UNL646      0.0521
   3876 H          14.9824   34.5991   22.4589 H     646  UNL646      0.2090
   3877 O          19.8788    1.4234   -0.1911 O.3   647  UNL647     -0.3982
   3878 C          18.7403    0.8616   -0.8177 C.3   647  UNL647      0.0330
   3879 H          18.3781    1.5404   -1.5938 H     647  UNL647      0.0521
   3880 H          17.9591    0.6932   -0.0724 H     647  UNL647      0.0521
   3881 H          19.0190   -0.0922   -1.2719 H     647  UNL647      0.0521
   3882 H          19.6007    2.2679    0.2025 H     647  UNL647      0.2090
   3883 O          19.7070    0.6413    2.6983 O.3   648  UNL648     -0.3982
   3884 C          18.6426    1.3513    2.0921 C.3   648  UNL648      0.0330
   3885 H          17.9162    0.6433    1.6854 H     648  UNL648      0.0521
   3886 H          19.0349    1.9861    1.2939 H     648  UNL648      0.0521
   3887 H          18.1571    1.9756    2.8458 H     648  UNL648      0.0521
   3888 H          20.1183    0.0967    2.0057 H     648  UNL648      0.2090
   3889 O          20.0066    1.2600    4.8799 O.3   649  UNL649     -0.3982
   3890 C          18.5908    1.2600    4.8799 C.3   649  UNL649      0.0330
   3891 H          18.2255    0.4910    5.5651 H     649  UNL649      0.0521
   3892 H          18.2256    1.0653    3.8686 H     649  UNL649      0.0521
   3893 H          18.2355    2.2386    5.2111 H     649  UNL649      0.0521
   3894 H          20.2923    0.3796    4.5819 H     649  UNL649      0.2090
   3895 O          19.6575    0.6689    6.8850 O.3   650  UNL650     -0.3982
   3896 C          18.8573    1.3708    7.8186 C.3   650  UNL650      0.0330
   3897 H          18.4834    0.6758    8.5746 H     650  UNL650      0.0521
   3898 H          18.0212    1.8451    7.2991 H     650  UNL650      0.0521
   3899 H          19.4659    2.1386    8.3018 H     650  UNL650      0.0521
   3900 H          19.0908   -0.0050    6.4726 H     650  UNL650      0.2090
   3901 O          18.0066    1.2600   10.3350 O.3   651  UNL651     -0.3982
   3902 C          16.5908    1.2600   10.3350 C.3   651  UNL651      0.0330
   3903 H          16.2255    0.4910   11.0202 H     651  UNL651      0.0521
   3904 H          16.2256    1.0653    9.3237 H     651  UNL651      0.0521
   3905 H          16.2355    2.2386   10.6662 H     651  UNL651      0.0521
   3906 H          18.2923    0.3796   10.0370 H     651  UNL651      0.2090
   3907 O          18.2066    1.1849   13.1494 O.3   652  UNL652     -0.3982
   3908 C          16.7908    1.1849   13.1494 C.3   652  UNL652      0.0330
   3909 H          16.4255    0.1560   13.1031 H     652  UNL652      0.0521
   3910 H          16.4256    1.7516   12.2894 H     652  UNL652      0.0521
   3911 H          16.4355    1.6543   14.0697 H     652  UNL652      0.0521
   3912 H          18.4923    0.7626   12.3214 H     652  UNL652      0.2090
   3913 O          20.0066    1.0182   15.6243 O.3   653  UNL653     -0.3982
   3914 C          18.5908    1.0182   15.6243 C.3   653  UNL653      0.0330
   3915 H          18.2255    2.0319   15.4417 H     653  UNL653      0.0521
   3916 H          18.2256    0.6560   16.5884 H     653  UNL653      0.0521
   3917 H          18.2355    0.3567   14.8307 H     653  UNL653      0.0521
   3918 H          20.2923    1.6133   16.3383 H     653  UNL653      0.2090
   3919 O          17.9545    0.6998   18.7141 O.3   654  UNL654     -0.3982
   3920 C          19.2241    1.1129   18.2431 C.3   654  UNL654      0.0330
   3921 H          19.9742    0.9454   19.0200 H     654  UNL654      0.0521
   3922 H          19.1884    2.1725   17.9785 H     654  UNL654      0.0521
   3923 H          19.4825    0.5270   17.3579 H     654  UNL654      0.0521
   3924 H          17.7524    1.2367   19.4992 H     654  UNL654      0.2090
   3925 O          18.2066    1.0941   21.9471 O.3   655  UNL655     -0.3982
   3926 C          16.7908    1.0941   21.9471 C.3   655  UNL655      0.0330
   3927 H          16.4255    0.2800   21.3161 H     655  UNL655      0.0521
   3928 H          16.4256    2.0528   21.5710 H     655  UNL655      0.0521
   3929 H          16.4355    0.9471   22.9697 H     655  UNL655      0.0521
   3930 H          18.4923    1.2263   21.0271 H     655  UNL655      0.2090
   3931 O          20.0066    4.1013   -0.5752 O.3   656  UNL656     -0.3982
   3932 C          18.5908    4.1013   -0.5752 C.3   656  UNL656      0.0330
   3933 H          18.2255    3.3323    0.1100 H     656  UNL656      0.0521
   3934 H          18.2256    3.9066   -1.5865 H     656  UNL656      0.0521
   3935 H          18.2355    5.0799   -0.2440 H     656  UNL656      0.0521
   3936 H          20.2923    3.2209   -0.8732 H     656  UNL656      0.2090
   3937 O          19.2385    3.0269    2.5756 O.3   657  UNL657     -0.3982
   3938 C          18.6643    4.1450    1.9240 C.3   657  UNL657      0.0330
   3939 H          19.2677    4.4093    1.0521 H     657  UNL657      0.0521
   3940 H          18.6182    4.9880    2.6177 H     657  UNL657      0.0521
   3941 H          17.6533    3.8869    1.6001 H     657  UNL657      0.0521
   3942 H          20.1342    3.2859    2.8514 H     657  UNL657      0.2090
   3943 O          17.9299    4.2684    4.5349 O.3   658  UNL658     -0.3982
   3944 C          19.2457    4.0418    5.0059 C.3   658  UNL658      0.0330
   3945 H          19.9101    3.8557    4.1584 H     658  UNL658      0.0521
   3946 H          19.2490    3.1825    5.6808 H     658  UNL658      0.0521
   3947 H          19.5873    4.9279    5.5461 H     658  UNL658      0.0521
   3948 H          17.6542    3.4658    4.0602 H     658  UNL658      0.2090
   3949 O          20.0066    3.9470    7.4067 O.3   659  UNL659     -0.3982
   3950 C          18.5908    3.9470    7.4067 C.3   659  UNL659      0.0330
   3951 H          18.2255    4.8741    7.8552 H     659  UNL659      0.0521
   3952 H          18.2256    3.0870    7.9733 H     659  UNL659      0.0521
   3953 H          18.2355    3.8788    6.3758 H     659  UNL659      0.0521
   3954 H          20.2923    4.0083    8.3341 H     659  UNL659      0.2090
   3955 O          18.3002    4.5717    9.9423 O.3   660  UNL660     -0.3982
   3956 C          19.4590    3.9412   10.4562 C.3   660  UNL660      0.0330
   3957 H          19.9939    3.4423    9.6442 H     660  UNL660      0.0521
   3958 H          19.1711    3.2131   11.2184 H     660  UNL660      0.0521
   3959 H          20.1063    4.6984   10.9048 H     660  UNL660      0.0521
   3960 H          17.7457    3.8753    9.5511 H     660  UNL660      0.2090
   3961 O          19.9410    4.1896   12.8880 O.3   661  UNL661     -0.3982
   3962 C          18.6061    3.7904   13.1392 C.3   661  UNL661      0.0330
   3963 H          17.9778    4.6756   13.2659 H     661  UNL661      0.0521
   3964 H          18.5726    3.1746   14.0413 H     661  UNL661      0.0521
   3965 H          18.2435    3.2076   12.2892 H     661  UNL661      0.0521
   3966 H          20.2351    4.7043   13.6587 H     661  UNL661      0.2090
   3967 O          19.5738    3.0825   15.7998 O.3   662  UNL662     -0.3982
   3968 C          18.6320    4.1371   15.8715 C.3   662  UNL662      0.0330
   3969 H          18.1133    4.2294   14.9140 H     662  UNL662      0.0521
   3970 H          19.1467    5.0708   16.1106 H     662  UNL662      0.0521
   3971 H          17.9060    3.9124   16.6564 H     662  UNL662      0.0521
   3972 H          20.2043    3.3099   15.0953 H     662  UNL662      0.2090
   3973 O          20.0066    3.8493   18.3612 O.3   663  UNL663     -0.3982
   3974 C          18.5908    3.8493   18.3612 C.3   663  UNL663      0.0330
   3975 H          18.2255    4.8421   18.0870 H     663  UNL663      0.0521
   3976 H          18.2256    3.5763   19.3542 H     663  UNL663      0.0521
   3977 H          18.2355    3.1183   17.6311 H     663  UNL663      0.0521
   3978 H          20.2923    4.5069   19.0180 H     663  UNL663      0.2090
   3979 O          19.9455    4.3022   22.0176 O.3   664  UNL664     -0.3982
   3980 C          18.6189    3.8091   22.0565 C.3   664  UNL664      0.0330
   3981 H          17.9436    4.6028   22.3857 H     664  UNL664      0.0521
   3982 H          18.5644    2.9614   22.7439 H     664  UNL664      0.0521
   3983 H          18.3319    3.4818   21.0545 H     664  UNL664      0.0521
   3984 H          20.1718    4.5848   22.9200 H     664  UNL664      0.2090
   3985 O          20.0066    6.9426   -0.5752 O.3   665  UNL665     -0.3982
   3986 C          18.5908    6.9426   -0.5752 C.3   665  UNL665      0.0330
   3987 H          18.2255    6.1736    0.1100 H     665  UNL665      0.0521
   3988 H          18.2256    6.7479   -1.5865 H     665  UNL665      0.0521
   3989 H          18.2355    7.9212   -0.2440 H     665  UNL665      0.0521
   3990 H          20.2923    6.0622   -0.8732 H     665  UNL665      0.2090
   3991 O          20.0066    6.9291    2.0255 O.3   666  UNL666     -0.3982
   3992 C          18.5908    6.9291    2.0255 C.3   666  UNL666      0.0330
   3993 H          18.2255    6.9508    3.0553 H     666  UNL666      0.0521
   3994 H          18.2256    6.0336    1.5168 H     666  UNL666      0.0521
   3995 H          18.2355    7.8165    1.4964 H     666  UNL666      0.0521
   3996 H          20.2923    6.1308    2.5015 H     666  UNL666      0.2090
   3997 O          20.0066    6.6850    4.7293 O.3   667  UNL667     -0.3982
   3998 C          18.5908    6.6850    4.7293 C.3   667  UNL667      0.0330
   3999 H          18.2255    7.6620    4.4031 H     667  UNL667      0.0521
   4000 H          18.2256    6.4649    5.7354 H     667  UNL667      0.0521
   4001 H          18.2355    5.9165    4.0388 H     667  UNL667      0.0521
   4002 H          20.2923    7.3764    5.3505 H     667  UNL667      0.2090
   4003 O          18.2066    6.7275    7.6934 O.3   668  UNL668     -0.3982
   4004 C          16.7908    6.7275    7.6934 C.3   668  UNL668      0.0330
   4005 H          16.4255    6.1712    6.8266 H     668  UNL668      0.0521
   4006 H          16.4256    7.7568    7.6595 H     668  UNL668      0.0521
   4007 H          16.4355    6.2472    8.6081 H     668  UNL668      0.0521
   4008 H          18.4923    7.1597    6.8705 H     668  UNL668      0.2090
   4009 O          17.6835    6.1928    9.7880 O.3   669  UNL669     -0.3982
   4010 C          16.6191    6.8084   10.4898 C.3   669  UNL669      0.0330
   4011 H          16.0392    7.4294    9.8025 H     669  UNL669      0.0521
   4012 H          17.0219    7.4212   11.2999 H     669  UNL669      0.0521
   4013 H          15.9742    6.0325   10.9089 H     669  UNL669      0.0521
   4014 H          18.2383    6.9056    9.4278 H     669  UNL669      0.2090
   4015 O          20.0066    6.9426   13.0625 O.3   670  UNL670     -0.3982
   4016 C          18.5908    6.9426   13.0625 C.3   670  UNL670      0.0330
   4017 H          18.2255    6.1736   13.7477 H     670  UNL670      0.0521
   4018 H          18.2256    6.7479   12.0512 H     670  UNL670      0.0521
   4019 H          18.2355    7.9212   13.3937 H     670  UNL670      0.0521
   4020 H          20.2923    6.0622   12.7645 H     670  UNL670      0.2090
   4021 O          20.0066    6.9089   15.8460 O.3   671  UNL671     -0.3982
   4022 C          18.5908    6.9089   15.8460 C.3   671  UNL671      0.0330
   4023 H          18.2255    5.9236   16.1463 H     671  UNL671      0.0521
   4024 H          18.2256    7.1555   14.8461 H     671  UNL671      0.0521
   4025 H          18.2355    7.6589   16.5565 H     671  UNL671      0.0521
   4026 H          20.2923    6.2341   15.2067 H     671  UNL671      0.2090
   4027 O          19.6277    6.6000   17.6585 O.3   672  UNL672     -0.3982
   4028 C          18.6885    7.0336   18.6251 C.3   672  UNL672      0.0330
   4029 H          19.1637    7.0632   19.6087 H     672  UNL672      0.0521
   4030 H          17.8374    6.3485   18.6403 H     672  UNL672      0.0521
   4031 H          18.3423    8.0353   18.3598 H     672  UNL672      0.0521
   4032 H          19.9166    5.7092   17.9204 H     672  UNL672      0.2090
   4033 O          20.0066    6.9426   22.2452 O.3   673  UNL673     -0.3982
   4034 C          18.5908    6.9426   22.2452 C.3   673  UNL673      0.0330
   4035 H          18.2255    6.1736   22.9304 H     673  UNL673      0.0521
   4036 H          18.2256    6.7479   21.2339 H     673  UNL673      0.0521
   4037 H          18.2355    7.9212   22.5764 H     673  UNL673      0.0521
   4038 H          20.2923    6.0622   21.9472 H     673  UNL673      0.2090
   4039 O          20.0066    9.5319   -0.7317 O.3   674  UNL674     -0.3982
   4040 C          18.5908    9.5319   -0.7317 C.3   674  UNL674      0.0330
   4041 H          18.2255   10.5247   -1.0058 H     674  UNL674      0.0521
   4042 H          18.2256    9.2589    0.2614 H     674  UNL674      0.0521
   4043 H          18.2355    8.8009   -1.4617 H     674  UNL674      0.0521
   4044 H          20.2923   10.1895   -0.0748 H     674  UNL674      0.2090
   4045 O          18.0066    9.7486    1.9972 O.3   675  UNL675     -0.3982
   4046 C          16.5908    9.7486    1.9972 C.3   675  UNL675      0.0330
   4047 H          16.2255   10.0097    2.9935 H     675  UNL675      0.0521
   4048 H          16.2256    8.7593    1.7112 H     675  UNL675      0.0521
   4049 H          16.2355   10.4883    1.2759 H     675  UNL675      0.0521
   4050 H          18.2923    9.0832    2.6461 H     675  UNL675      0.2090
   4051 O          20.0066    9.5319    4.7234 O.3   676  UNL676     -0.3982
   4052 C          18.5908    9.5319    4.7234 C.3   676  UNL676      0.0330
   4053 H          18.2255   10.5247    4.4493 H     676  UNL676      0.0521
   4054 H          18.2256    9.2589    5.7165 H     676  UNL676      0.0521
   4055 H          18.2355    8.8009    3.9934 H     676  UNL676      0.0521
   4056 H          20.2923   10.1895    5.3803 H     676  UNL676      0.2090
   4057 O          18.6066    9.7839    7.6074 O.3   677  UNL677     -0.3982
   4058 C          17.1908    9.7839    7.6074 C.3   677  UNL677      0.0330
   4059 H          16.8255    9.0149    8.2926 H     677  UNL677      0.0521
   4060 H          16.8256    9.5892    6.5961 H     677  UNL677      0.0521
   4061 H          16.8355   10.7625    7.9386 H     677  UNL677      0.0521
   4062 H          18.8923    8.9035    7.3094 H     677  UNL677      0.2090
   4063 O          18.2066    9.7526   10.1841 O.3   678  UNL678     -0.3982
   4064 C          16.7908    9.7526   10.1841 C.3   678  UNL678      0.0330
   4065 H          16.4255    9.9752   11.1897 H     678  UNL678      0.0521
   4066 H          16.4256    8.7750    9.8603 H     678  UNL678      0.0521
   4067 H          16.4355   10.5194    9.4917 H     678  UNL678      0.0521
   4068 H          18.4923    9.0628   10.8070 H     678  UNL678      0.2090
   4069 O          18.6066    9.5319   12.9061 O.3   679  UNL679     -0.3982
   4070 C          17.1908    9.5319   12.9061 C.3   679  UNL679      0.0330
   4071 H          16.8255   10.5247   12.6319 H     679  UNL679      0.0521
   4072 H          16.8256    9.2589   13.8991 H     679  UNL679      0.0521
   4073 H          16.8355    8.8009   12.1760 H     679  UNL679      0.0521
   4074 H          18.8923   10.1895   13.5629 H     679  UNL679      0.2090
   4075 O          20.0066    9.5669   15.6075 O.3   680  UNL680     -0.3982
   4076 C          18.5908    9.5669   15.6075 C.3   680  UNL680      0.0330
   4077 H          18.2255   10.5967   15.6266 H     680  UNL680      0.0521
   4078 H          18.2256    9.0231   16.4821 H     680  UNL680      0.0521
   4079 H          18.2355    9.0733   14.6999 H     680  UNL680      0.0521
   4080 H          20.2923   10.0108   16.4240 H     680  UNL680      0.2090
   4081 O          18.0066    9.6886   18.6130 O.3   681  UNL681     -0.3982
   4082 C          16.5908    9.6886   18.6130 C.3   681  UNL681      0.0330
   4083 H          16.2255    8.6770   18.4195 H     681  UNL681      0.0521
   4084 H          16.2256   10.3728   17.8432 H     681  UNL681      0.0521
   4085 H          16.2355   10.0211   19.5912 H     681  UNL681      0.0521
   4086 H          18.2923    9.3895   17.7330 H     681  UNL681      0.2090
   4087 O          18.0066    9.6573   22.0451 O.3   682  UNL682     -0.3982
   4088 C          16.5908    9.6573   22.0451 C.3   682  UNL682      0.0330
   4089 H          16.2255   10.4875   22.6547 H     682  UNL682      0.0521
   4090 H          16.2256    8.7087   22.4459 H     682  UNL682      0.0521
   4091 H          16.2355    9.7777   21.0190 H     682  UNL682      0.0521
   4092 H          18.2923    9.5490   22.9682 H     682  UNL682      0.2090
   4093 O          19.7070   12.6252    0.1230 O.3   683  UNL683     -0.3982
   4094 C          18.6426   12.6252   -0.8106 C.3   683  UNL683      0.0330
   4095 H          17.9162   11.8562   -0.5363 H     683  UNL683      0.0521
   4096 H          19.0349   12.4305   -1.8117 H     683  UNL683      0.0521
   4097 H          18.1571   13.6038   -0.7959 H     683  UNL683      0.0521
   4098 H          20.1183   11.7448    0.0873 H     683  UNL683      0.2090
   4099 O          19.3835   12.5428    2.9324 O.3   684  UNL684     -0.3982
   4100 C          18.4486   12.0723    1.9789 C.3   684  UNL684      0.0330
   4101 H          18.9809   11.6439    1.1260 H     684  UNL684      0.0521
   4102 H          17.8158   12.8997    1.6488 H     684  UNL684      0.0521
   4103 H          17.8264   11.3026    2.4413 H     684  UNL684      0.0521
   4104 H          19.9209   13.2241    2.4935 H     684  UNL684      0.2090
   4105 O          20.0066   12.6252    4.8799 O.3   685  UNL685     -0.3982
   4106 C          18.5908   12.6252    4.8799 C.3   685  UNL685      0.0330
   4107 H          18.2255   11.8562    5.5651 H     685  UNL685      0.0521
   4108 H          18.2256   12.4305    3.8686 H     685  UNL685      0.0521
   4109 H          18.2355   13.6038    5.2111 H     685  UNL685      0.0521
   4110 H          20.2923   11.7448    4.5819 H     685  UNL685      0.2090
   4111 O          19.4419   13.0324    8.3439 O.3   686  UNL686     -0.3982
   4112 C          18.6844   12.4865    7.2797 C.3   686  UNL686      0.0330
   4113 H          18.0452   11.6856    7.6596 H     686  UNL686      0.0521
   4114 H          19.3590   12.0964    6.5137 H     686  UNL686      0.0521
   4115 H          18.0614   13.2728    6.8472 H     686  UNL686      0.0521
   4116 H          19.9843   12.3119    8.7075 H     686  UNL686      0.2090
   4117 O          20.0066   12.3555   10.3725 O.3   687  UNL687     -0.3982
   4118 C          18.5908   12.3555   10.3725 C.3   687  UNL687      0.0330
   4119 H          18.2255   12.2667    9.3464 H     687  UNL687      0.0521
   4120 H          18.2256   13.2822   10.8217 H     687  UNL687      0.0521
   4121 H          18.2355   11.5045   10.9583 H     687  UNL687      0.0521
   4122 H          20.2923   13.1211    9.8455 H     687  UNL687      0.2090
   4123 O          19.2812   13.4849   13.2413 O.3   688  UNL688     -0.3982
   4124 C          18.6498   12.2643   12.9008 C.3   688  UNL688      0.0330
   4125 H          18.6505   11.5985   13.7674 H     688  UNL688      0.0521
   4126 H          19.1822   11.7973   12.0687 H     688  UNL688      0.0521
   4127 H          17.6190   12.4688   12.6021 H     688  UNL688      0.0521
   4128 H          20.1935   13.2716   13.5019 H     688  UNL688      0.2090
   4129 O          19.8343   11.8791   15.7901 O.3   689  UNL689     -0.3982
   4130 C          18.7699   12.8126   15.7901 C.3   689  UNL689      0.0330
   4131 H          17.9882   12.4754   16.4753 H     689  UNL689      0.0521
   4132 H          18.3670   12.9070   14.7788 H     689  UNL689      0.0521
   4133 H          19.1481   13.7826   16.1213 H     689  UNL689      0.0521
   4134 H          19.4686   11.0288   15.4921 H     689  UNL689      0.2090
   4135 O          19.3422   13.1008   19.2619 O.3   690  UNL690     -0.3982
   4136 C          18.6919   12.4512   18.1850 C.3   690  UNL690      0.0330
   4137 H          18.1652   11.5682   18.5554 H     690  UNL690      0.0521
   4138 H          19.4307   12.1598   17.4345 H     690  UNL690      0.0521
   4139 H          17.9725   13.1404   17.7365 H     690  UNL690      0.0521
   4140 H          19.9738   12.4651   19.6395 H     690  UNL690      0.2090
   4141 O          19.3833   12.9233   22.6806 O.3   691  UNL691     -0.3982
   4142 C          18.6980   12.2267   21.6560 C.3   691  UNL691      0.0330
   4143 H          19.4224   11.7545   20.9878 H     691  UNL691      0.0521
   4144 H          18.0708   12.9247   21.0962 H     691  UNL691      0.0521
   4145 H          18.0683   11.4575   22.1093 H     691  UNL691      0.0521
   4146 H          19.9333   13.5987   22.2483 H     691  UNL691      0.2090
   4147 O          18.0066   15.4418   -0.7183 O.3   692  UNL692     -0.3982
   4148 C          16.5908   15.4418   -0.7183 C.3   692  UNL692      0.0330
   4149 H          16.2255   15.5964    0.3000 H     692  UNL692      0.0521
   4150 H          16.2256   14.4881   -1.1070 H     692  UNL692      0.0521
   4151 H          16.2355   16.2534   -1.3576 H     692  UNL692      0.0521
   4152 H          18.2923   14.7117   -0.1432 H     692  UNL692      0.2090
   4153 O          19.0663   14.3957    1.5499 O.3   693  UNL693     -0.3982
   4154 C          18.7135   15.5254    2.3271 C.3   693  UNL693      0.0330
   4155 H          18.6687   16.4098    1.6867 H     693  UNL693      0.0521
   4156 H          19.4547   15.6713    3.1166 H     693  UNL693      0.0521
   4157 H          17.7331   15.3544    2.7777 H     693  UNL693      0.0521
   4158 H          19.9399   14.5766    1.1631 H     693  UNL693      0.2090
   4159 O          19.8103   15.9515    4.7234 O.3   694  UNL694     -0.3982
   4160 C          18.7459   15.0179    4.7234 C.3   694  UNL694      0.0330
   4161 H          17.8166   15.5235    4.4493 H     694  UNL694      0.0521
   4162 H          18.6513   14.5719    5.7165 H     694  UNL694      0.0521
   4163 H          18.9608   14.2341    3.9934 H     694  UNL694      0.0521
   4164 H          19.5914   16.6343    5.3803 H     694  UNL694      0.2090
   4165 O          18.0066   15.3977    7.4264 O.3   695  UNL695     -0.3982
   4166 C          16.5908   15.3977    7.4264 C.3   695  UNL695      0.0330
   4167 H          16.2255   15.9230    8.3123 H     695  UNL695      0.0521
   4168 H          16.2256   14.3679    7.4238 H     695  UNL695      0.0521
   4169 H          16.2355   15.9102    6.5293 H     695  UNL695      0.0521
   4170 H          18.2923   14.9367    8.2334 H     695  UNL695      0.2090
   4171 O          19.7516   14.6408   10.4938 O.3   696  UNL696     -0.3982
   4172 C          18.7877   15.5853   10.0659 C.3   696  UNL696      0.0330
   4173 H          18.6387   16.3348   10.8472 H     696  UNL696      0.0521
   4174 H          17.8458   15.0745    9.8517 H     696  UNL696      0.0521
   4175 H          19.1486   16.0751    9.1584 H     696  UNL696      0.0521
   4176 H          19.4038   14.2228   11.3000 H     696  UNL696      0.2090
   4177 O          20.0066   15.4665   13.0625 O.3   697  UNL697     -0.3982
   4178 C          18.5908   15.4665   13.0625 C.3   697  UNL697      0.0330
   4179 H          18.2255   14.6975   13.7477 H     697  UNL697      0.0521
   4180 H          18.2256   15.2718   12.0512 H     697  UNL697      0.0521
   4181 H          18.2355   16.4451   13.3937 H     697  UNL697      0.0521
   4182 H          20.2923   14.5861   12.7645 H     697  UNL697      0.2090
   4183 O          19.4673   15.3770   14.7972 O.3   698  UNL698     -0.3982
   4184 C          18.6671   15.4649   15.9619 C.3   698  UNL698      0.0330
   4185 H          19.3073   15.6166   16.8344 H     698  UNL698      0.0521
   4186 H          18.0877   14.5457   16.0771 H     698  UNL698      0.0521
   4187 H          17.9852   16.3125   15.8613 H     698  UNL698      0.0521
   4188 H          20.0616   14.6165   14.9156 H     698  UNL698      0.2090
   4189 O          20.0066   15.3985   18.6006 O.3   699  UNL699     -0.3982
   4190 C          18.5908   15.3985   18.6006 C.3   699  UNL699      0.0330
   4191 H          18.2255   14.3685   18.6087 H     699  UNL699      0.0521
   4192 H          18.2256   15.9189   17.7119 H     699  UNL699      0.0521
   4193 H          18.2355   15.9158   19.4949 H     699  UNL699      0.0521
   4194 H          20.2923   14.9331   17.7961 H     699  UNL699      0.2090
   4195 O          20.0066   15.2310   21.0744 O.3   700  UNL700     -0.3982
   4196 C          18.5908   15.2310   21.0744 C.3   700  UNL700      0.0330
   4197 H          18.2255   16.2529   20.9455 H     700  UNL700      0.0521
   4198 H          18.2256   14.8184   22.0180 H     700  UNL700      0.0521
   4199 H          18.2355   14.6123   20.2470 H     700  UNL700      0.0521
   4200 H          20.2923   15.7876   21.8188 H     700  UNL700      0.2090
   4201 O          19.8066   18.2518   -0.5206 O.3   701  UNL701     -0.3982
   4202 C          18.3908   18.2518   -0.5206 C.3   701  UNL701      0.0330
   4203 H          18.0255   18.0167   -1.5234 H     701  UNL701      0.0521
   4204 H          18.0256   19.2334   -0.2090 H     701  UNL701      0.0521
   4205 H          18.0355   17.4936    0.1813 H     701  UNL701      0.0521
   4206 H          20.0923   18.9338   -1.1520 H     701  UNL701      0.2090
   4207 O          19.8226   17.5693    2.2841 O.3   702  UNL702     -0.3982
   4208 C          18.7582   18.4171    1.8932 C.3   702  UNL702      0.0330
   4209 H          18.5337   19.1178    2.7012 H     702  UNL702      0.0521
   4210 H          17.8763   17.8141    1.6639 H     702  UNL702      0.0521
   4211 H          19.0570   18.9750    1.0026 H     702  UNL702      0.0521
   4212 H          19.5283   17.0878    3.0759 H     702  UNL702      0.2090
   4213 O          20.0066   18.0558    4.7234 O.3   703  UNL703     -0.3982
   4214 C          18.5908   18.0558    4.7234 C.3   703  UNL703      0.0330
   4215 H          18.2255   19.0486    4.4493 H     703  UNL703      0.0521
   4216 H          18.2256   17.7828    5.7165 H     703  UNL703      0.0521
   4217 H          18.2355   17.3248    3.9934 H     703  UNL703      0.0521
   4218 H          20.2923   18.7134    5.3803 H     703  UNL703      0.2090
   4219 O          18.2066   18.3078    7.6074 O.3   704  UNL704     -0.3982
   4220 C          16.7908   18.3078    7.6074 C.3   704  UNL704      0.0330
   4221 H          16.4255   17.5388    8.2926 H     704  UNL704      0.0521
   4222 H          16.4256   18.1131    6.5961 H     704  UNL704      0.0521
   4223 H          16.4355   19.2864    7.9386 H     704  UNL704      0.0521
   4224 H          18.4923   17.4274    7.3094 H     704  UNL704      0.2090
   4225 O          17.5365   17.4413   10.1839 O.3   705  UNL705     -0.3982
   4226 C          16.6250   18.5057   10.3853 C.3   705  UNL705      0.0330
   4227 H          15.8580   18.1994   11.1010 H     705  UNL705      0.0521
   4228 H          16.1626   18.7758    9.4328 H     705  UNL705      0.0521
   4229 H          17.1670   19.3674   10.7820 H     705  UNL705      0.0521
   4230 H          17.0270   16.6916    9.8319 H     705  UNL705      0.2090
   4231 O          18.2066   18.0126   13.0338 O.3   706  UNL706     -0.3982
   4232 C          16.7908   18.0126   13.0338 C.3   706  UNL706      0.0330
   4233 H          16.4255   18.3989   12.0790 H     706  UNL706      0.0521
   4234 H          16.4256   18.6347   13.8545 H     706  UNL706      0.0521
   4235 H          16.4355   16.9884   13.1698 H     706  UNL706      0.0521
   4236 H          18.4923   18.9339   12.9114 H     706  UNL706      0.2090
   4237 O          20.0066   18.0558   15.6336 O.3   707  UNL707     -0.3982
   4238 C          18.5908   18.0558   15.6336 C.3   707  UNL707      0.0330
   4239 H          18.2255   19.0486   15.3595 H     707  UNL707      0.0521
   4240 H          18.2256   17.7828   16.6267 H     707  UNL707      0.0521
   4241 H          18.2355   17.3248   14.9036 H     707  UNL707      0.0521
   4242 H          20.2923   18.7134   16.2905 H     707  UNL707      0.2090
   4243 O          18.0066   18.3078   18.5176 O.3   708  UNL708     -0.3982
   4244 C          16.5908   18.3078   18.5176 C.3   708  UNL708      0.0330
   4245 H          16.2255   17.5388   19.2028 H     708  UNL708      0.0521
   4246 H          16.2256   18.1131   17.5063 H     708  UNL708      0.0521
   4247 H          16.2355   19.2864   18.8488 H     708  UNL708      0.0521
   4248 H          18.2923   17.4274   18.2196 H     708  UNL708      0.2090
   4249 O          18.0066   18.0558   21.8887 O.3   709  UNL709     -0.3982
   4250 C          16.5908   18.0558   21.8887 C.3   709  UNL709      0.0330
   4251 H          16.2255   19.0486   21.6146 H     709  UNL709      0.0521
   4252 H          16.2256   17.7828   22.8818 H     709  UNL709      0.0521
   4253 H          16.2355   17.3248   21.1587 H     709  UNL709      0.0521
   4254 H          18.2923   18.7134   22.5456 H     709  UNL709      0.2090
   4255 O          20.0066   20.8877   -0.7214 O.3   710  UNL710     -0.3982
   4256 C          18.5908   20.8877   -0.7214 C.3   710  UNL710      0.0330
   4257 H          18.2255   21.8516   -1.0845 H     710  UNL710      0.0521
   4258 H          18.2256   20.7059    0.2923 H     710  UNL710      0.0521
   4259 H          18.2355   20.0936   -1.3823 H     710  UNL710      0.0521
   4260 H          20.2923   21.6022   -0.1269 H     710  UNL710      0.2090
   4261 O          18.4066   20.8971    1.9959 O.3   711  UNL711     -0.3982
   4262 C          16.9908   20.8971    1.9959 C.3   711  UNL711      0.0330
   4263 H          16.6255   21.8899    1.7217 H     711  UNL711      0.0521
   4264 H          16.6256   20.6241    2.9889 H     711  UNL711      0.0521
   4265 H          16.6355   20.1661    1.2658 H     711  UNL711      0.0521
   4266 H          18.6923   21.5547    2.6527 H     711  UNL711      0.2090
   4267 O          20.0066   20.8971    4.7234 O.3   712  UNL712     -0.3982
   4268 C          18.5908   20.8971    4.7234 C.3   712  UNL712      0.0330
   4269 H          18.2255   21.8899    4.4493 H     712  UNL712      0.0521
   4270 H          18.2256   20.6241    5.7165 H     712  UNL712      0.0521
   4271 H          18.2355   20.1661    3.9934 H     712  UNL712      0.0521
   4272 H          20.2923   21.5547    5.3803 H     712  UNL712      0.2090
   4273 O          18.0066   21.1454    7.5002 O.3   713  UNL713     -0.3982
   4274 C          16.5908   21.1454    7.5002 C.3   713  UNL713      0.0330
   4275 H          16.2255   21.0191    8.5224 H     713  UNL713      0.0521
   4276 H          16.2256   20.3322    6.8683 H     713  UNL713      0.0521
   4277 H          16.2355   22.0996    7.1039 H     713  UNL713      0.0521
   4278 H          18.2923   20.2871    7.8567 H     713  UNL713      0.2090
   4279 O          19.3474   21.9229    9.5513 O.3   714  UNL714     -0.3982
   4280 C          18.7139   20.9018   10.3000 C.3   714  UNL714      0.0330
   4281 H          18.0607   20.3201    9.6449 H     714  UNL714      0.0521
   4282 H          18.1314   21.3497   11.1087 H     714  UNL714      0.0521
   4283 H          19.4781   20.2462   10.7243 H     714  UNL714      0.0521
   4284 H          18.6447   22.4882    9.1877 H     714  UNL714      0.2090
   4285 O          17.5542   21.7125   13.0625 O.3   715  UNL715     -0.3982
   4286 C          16.3668   20.9414   13.0625 C.3   715  UNL715      0.0330
   4287 H          16.4793   20.0975   13.7477 H     715  UNL715      0.0521
   4288 H          16.1666   20.5792   12.0512 H     715  UNL715      0.0521
   4289 H          15.5359   21.5685   13.3937 H     715  UNL715      0.0521
   4290 H          18.2733   21.1298   12.7645 H     715  UNL715      0.2090
   4291 O          19.0066   21.1491   15.7901 O.3   716  UNL716     -0.3982
   4292 C          17.5908   21.1491   15.7901 C.3   716  UNL716      0.0330
   4293 H          17.2255   20.3801   16.4753 H     716  UNL716      0.0521
   4294 H          17.2256   20.9544   14.7788 H     716  UNL716      0.0521
   4295 H          17.2355   22.1277   16.1213 H     716  UNL716      0.0521
   4296 H          19.2923   20.2687   15.4921 H     716  UNL716      0.2090
   4297 O          19.0758   21.5006   17.5115 O.3   717  UNL717     -0.3982
   4298 C          18.7425   20.7517   18.6659 C.3   717  UNL717      0.0330
   4299 H          18.4140   21.4288   19.4583 H     717  UNL717      0.0521
   4300 H          19.6149   20.1828   18.9966 H     717  UNL717      0.0521
   4301 H          17.9320   20.0616   18.4200 H     717  UNL717      0.0521
   4302 H          19.7970   22.1035   17.7604 H     717  UNL717      0.2090
   4303 O          18.7137   21.7344   22.9740 O.3   718  UNL718     -0.3982
   4304 C          19.1214   20.7047   22.0920 C.3   718  UNL718      0.0330
   4305 H          19.5639   21.1456   21.1953 H     718  UNL718      0.0521
   4306 H          18.2578   20.0922   21.8217 H     718  UNL718      0.0521
   4307 H          19.8650   20.0809   22.5936 H     718  UNL718      0.0521
   4308 H          18.0545   22.2709   22.5016 H     718  UNL718      0.2090
   4309 O          20.0066   23.7096   -0.5566 O.3   719  UNL719     -0.3982
   4310 C          18.5908   23.7096   -0.5566 C.3   719  UNL719      0.0330
   4311 H          18.2255   23.7690   -1.5848 H     719  UNL719      0.0521
   4312 H          18.2256   24.5622    0.0210 H     719  UNL719      0.0521
   4313 H          18.2355   22.7833   -0.0990 H     719  UNL719      0.0521
   4314 H          20.2923   24.5429   -0.9683 H     719  UNL719      0.2090
   4315 O          19.5394   24.5533    2.6615 O.3   720  UNL720     -0.3982
   4316 C          18.6250   23.7868    1.8993 C.3   720  UNL720      0.0330
   4317 H          18.2131   22.9868    2.5195 H     720  UNL720      0.0521
   4318 H          19.1375   23.3630    1.0323 H     720  UNL720      0.0521
   4319 H          17.8143   24.4355    1.5595 H     720  UNL720      0.0521
   4320 H          20.2469   23.9513    2.9489 H     720  UNL720      0.2090
   4321 O          20.0066   23.9904    4.8799 O.3   721  UNL721     -0.3982
   4322 C          18.5908   23.9904    4.8799 C.3   721  UNL721      0.0330
   4323 H          18.2255   23.2214    5.5651 H     721  UNL721      0.0521
   4324 H          18.2256   23.7957    3.8686 H     721  UNL721      0.0521
   4325 H          18.2355   24.9690    5.2111 H     721  UNL721      0.0521
   4326 H          20.2923   23.1100    4.5819 H     721  UNL721      0.2090
   4327 O          18.2066   23.9904    7.6074 O.3   722  UNL722     -0.3982
   4328 C          16.7908   23.9904    7.6074 C.3   722  UNL722      0.0330
   4329 H          16.4255   23.2214    8.2926 H     722  UNL722      0.0521
   4330 H          16.4256   23.7957    6.5961 H     722  UNL722      0.0521
   4331 H          16.4355   24.9690    7.9386 H     722  UNL722      0.0521
   4332 H          18.4923   23.1100    7.3094 H     722  UNL722      0.2090
   4333 O          18.0066   23.9644   10.1902 O.3   723  UNL723     -0.3982
   4334 C          16.5908   23.9644   10.1902 C.3   723  UNL723      0.0330
   4335 H          16.2255   24.1336   11.2062 H     723  UNL723      0.0521
   4336 H          16.2256   23.0052    9.8153 H     723  UNL723      0.0521
   4337 H          16.2355   24.7666    9.5392 H     723  UNL723      0.0521
   4338 H          18.2923   23.2426   10.7758 H     723  UNL723      0.2090
   4339 O          18.9148   23.6953   13.8791 O.3   724  UNL724     -0.3982
   4340 C          19.0483   23.7647   12.4714 C.3   724  UNL724      0.0330
   4341 H          18.8656   22.7782   12.0380 H     724  UNL724      0.0521
   4342 H          20.0546   24.1057   12.2163 H     724  UNL724      0.0521
   4343 H          18.3154   24.4738   12.0795 H     724  UNL724      0.0521
   4344 H          19.5774   23.0590   14.1979 H     724  UNL724      0.2090
   4345 O          18.0673   23.3330   15.5203 O.3   725  UNL725     -0.3982
   4346 C          19.2351   23.8261   16.1508 C.3   725  UNL725      0.0330
   4347 H          18.9662   24.6300   16.8405 H     725  UNL725      0.0521
   4348 H          19.9296   24.1982   15.3937 H     725  UNL725      0.0521
   4349 H          19.7080   23.0139   16.7080 H     725  UNL725      0.0521
   4350 H          17.6699   24.0755   15.0342 H     725  UNL725      0.2090
   4351 O          20.0066   23.7520   18.5886 O.3   726  UNL726     -0.3982
   4352 C          18.5908   23.7520   18.5886 C.3   726  UNL726      0.0330
   4353 H          18.2255   23.3621   17.6352 H     726  UNL726      0.0521
   4354 H          18.2256   24.7704   18.7418 H     726  UNL726      0.0521
   4355 H          18.2355   23.1138   19.4010 H     726  UNL726      0.0521
   4356 H          20.2923   24.3263   17.8577 H     726  UNL726      0.2090
   4357 O          17.9722   23.4064   20.9240 O.3   727  UNL727     -0.3982
   4358 C          19.2419   23.8196   21.3950 C.3   727  UNL727      0.0330
   4359 H          19.1470   24.7812   21.9055 H     727  UNL727      0.0521
   4360 H          19.9326   23.9085   20.5530 H     727  UNL727      0.0521
   4361 H          19.6207   23.0728   22.0968 H     727  UNL727      0.0521
   4362 H          17.6619   24.0881   20.3039 H     727  UNL727      0.2090
   4363 O          18.3070   26.8317    0.1230 O.3   728  UNL728     -0.3982
   4364 C          17.2426   26.8317   -0.8106 C.3   728  UNL728      0.0330
   4365 H          16.5162   26.0627   -0.5363 H     728  UNL728      0.0521
   4366 H          17.6349   26.6370   -1.8117 H     728  UNL728      0.0521
   4367 H          16.7571   27.8103   -0.7959 H     728  UNL728      0.0521
   4368 H          18.7183   25.9513    0.0873 H     728  UNL728      0.2090
   4369 O          18.0066   26.8317    2.1523 O.3   729  UNL729     -0.3982
   4370 C          16.5908   26.8317    2.1523 C.3   729  UNL729      0.0330
   4371 H          16.2255   26.0627    2.8375 H     729  UNL729      0.0521
   4372 H          16.2256   26.6370    1.1410 H     729  UNL729      0.0521
   4373 H          16.2355   27.8103    2.4835 H     729  UNL729      0.0521
   4374 H          18.2923   25.9513    1.8543 H     729  UNL729      0.2090
   4375 O          19.0066   26.8317    4.8799 O.3   730  UNL730     -0.3982
   4376 C          17.5908   26.8317    4.8799 C.3   730  UNL730      0.0330
   4377 H          17.2255   26.0627    5.5651 H     730  UNL730      0.0521
   4378 H          17.2256   26.6370    3.8686 H     730  UNL730      0.0521
   4379 H          17.2355   27.8103    5.2111 H     730  UNL730      0.0521
   4380 H          19.2923   25.9513    4.5819 H     730  UNL730      0.2090
   4381 O          17.9512   26.1210    7.9915 O.3   731  UNL731     -0.3982
   4382 C          16.8126   26.6829    7.3650 C.3   731  UNL731      0.0330
   4383 H          17.1311   27.3832    6.5889 H     731  UNL731      0.0521
   4384 H          16.2038   27.2004    8.1103 H     731  UNL731      0.0521
   4385 H          16.2253   25.8814    6.9108 H     731  UNL731      0.0521
   4386 H          18.4523   26.8555    8.3852 H     731  UNL731      0.2090
   4387 O          17.8066   26.8317   10.3350 O.3   732  UNL732     -0.3982
   4388 C          16.3908   26.8317   10.3350 C.3   732  UNL732      0.0330
   4389 H          16.0255   26.0627   11.0202 H     732  UNL732      0.0521
   4390 H          16.0256   26.6370    9.3237 H     732  UNL732      0.0521
   4391 H          16.0355   27.8103   10.6662 H     732  UNL732      0.0521
   4392 H          18.0923   25.9513   10.0370 H     732  UNL732      0.2090
   4393 O          18.4066   26.8280   12.9553 O.3   733  UNL733     -0.3982
   4394 C          16.9908   26.8280   12.9553 C.3   733  UNL733      0.0330
   4395 H          16.6255   26.7017   13.9775 H     733  UNL733      0.0521
   4396 H          16.6256   26.0148   12.3234 H     733  UNL733      0.0521
   4397 H          16.6355   27.7822   12.5590 H     733  UNL733      0.0521
   4398 H          18.6923   25.9697   13.3118 H     733  UNL733      0.2090
   4399 O          17.4682   25.8888   15.7483 O.3   734  UNL734     -0.3982
   4400 C          16.4038   26.8127   15.6143 C.3   734  UNL734      0.0330
   4401 H          16.7838   27.7505   15.2013 H     734  UNL734      0.0521
   4402 H          15.9492   26.9905   16.5920 H     734  UNL734      0.0521
   4403 H          15.6546   26.3959   14.9371 H     734  UNL734      0.0521
   4404 H          18.1166   26.2860   16.3544 H     734  UNL734      0.2090
   4405 O          17.1306   26.5195   19.3615 O.3   735  UNL735     -0.3982
   4406 C          18.0424   26.8220   18.3215 C.3   735  UNL735      0.0330
   4407 H          17.5638   27.4866   17.5979 H     735  UNL735      0.0521
   4408 H          18.3567   25.8976   17.8310 H     735  UNL735      0.0521
   4409 H          18.9158   27.3204   18.7486 H     735  UNL735      0.0521
   4410 H          16.3667   26.0783   18.9523 H     735  UNL735      0.2090
   4411 O          18.0066   26.8317   22.2452 O.3   736  UNL736     -0.3982
   4412 C          16.5908   26.8317   22.2452 C.3   736  UNL736      0.0330
   4413 H          16.2255   26.0627   22.9304 H     736  UNL736      0.0521
   4414 H          16.2256   26.6370   21.2339 H     736  UNL736      0.0521
   4415 H          16.2355   27.8103   22.5764 H     736  UNL736      0.0521
   4416 H          18.2923   25.9513   21.9472 H     736  UNL736      0.2090
   4417 O          19.8066   29.8042   -0.7563 O.3   737  UNL737     -0.3982
   4418 C          18.3908   29.8042   -0.7563 C.3   737  UNL737      0.0330
   4419 H          18.0255   30.3295    0.1297 H     737  UNL737      0.0521
   4420 H          18.0256   28.7744   -0.7588 H     737  UNL737      0.0521
   4421 H          18.0355   30.3167   -1.6534 H     737  UNL737      0.0521
   4422 H          20.0923   29.3432    0.0508 H     737  UNL737      0.2090
   4423 O          18.2197   29.6632    2.3977 O.3   738  UNL738     -0.3982
   4424 C          19.4100   29.4095    1.6743 C.3   738  UNL738      0.0330
   4425 H          19.2461   28.5814    0.9802 H     738  UNL738      0.0521
   4426 H          20.2148   29.1615    2.3706 H     738  UNL738      0.0521
   4427 H          19.6815   30.3056    1.1113 H     738  UNL738      0.0521
   4428 H          18.0041   28.8510    2.8869 H     738  UNL738      0.2090
   4429 O          19.6287   28.7808    4.4633 O.3   739  UNL739     -0.3982
   4430 C          18.6002   29.6010    4.9868 C.3   739  UNL739      0.0330
   4431 H          18.2393   30.2766    4.2073 H     739  UNL739      0.0521
   4432 H          18.9862   30.1759    5.8321 H     739  UNL739      0.0521
   4433 H          17.7778   28.9667    5.3257 H     739  UNL739      0.0521
   4434 H          20.3440   29.3711    4.1711 H     739  UNL739      0.2090
   4435 O          19.8066   29.4330    7.4770 O.3   740  UNL740     -0.3982
   4436 C          18.3908   29.4330    7.4770 C.3   740  UNL740      0.0330
   4437 H          18.0255   29.0564    6.5183 H     740  UNL740      0.0521
   4438 H          18.0256   30.4491    7.6446 H     740  UNL740      0.0521
   4439 H          18.0355   28.7834    8.2804 H     740  UNL740      0.0521
   4440 H          20.0923   30.0174    6.7543 H     740  UNL740      0.2090
   4441 O          18.4880   28.9392   11.0869 O.3   741  UNL741     -0.3982
   4442 C          18.8808   29.7071    9.9642 C.3   741  UNL741      0.0330
   4443 H          19.6533   29.1711    9.4072 H     741  UNL741      0.0521
   4444 H          19.2630   30.6745   10.2990 H     741  UNL741      0.0521
   4445 H          18.0127   29.8640    9.3197 H     741  UNL741      0.0521
   4446 H          19.2784   28.8164   11.6398 H     741  UNL741      0.2090
   4447 O          19.8066   29.5772   12.9981 O.3   742  UNL742     -0.3982
   4448 C          18.3908   29.5772   12.9981 C.3   742  UNL742      0.0330
   4449 H          18.0255   30.1751   12.1594 H     742  UNL742      0.0521
   4450 H          18.0256   29.9914   13.9410 H     742  UNL742      0.0521
   4451 H          18.0355   28.5495   12.8922 H     742  UNL742      0.0521
   4452 H          20.0923   30.5018   13.0934 H     742  UNL742      0.2090
   4453 O          19.4155   29.0472   16.5871 O.3   743  UNL743     -0.3982
   4454 C          18.6242   29.6903   15.6048 C.3   743  UNL743      0.0330
   4455 H          18.5125   29.0337   14.7384 H     743  UNL743      0.0521
   4456 H          19.1020   30.6267   15.3066 H     743  UNL743      0.0521
   4457 H          17.6393   29.9044   16.0263 H     743  UNL743      0.0521
   4458 H          20.2826   28.8700   16.1843 H     743  UNL743      0.2090
   4459 O          17.8016   29.3251   17.7384 O.3   744  UNL744     -0.3982
   4460 C          19.0712   29.4150   18.3585 C.3   744  UNL744      0.0330
   4461 H          18.9447   29.4824   19.4419 H     744  UNL744      0.0521
   4462 H          19.5975   30.2975   17.9867 H     744  UNL744      0.0521
   4463 H          19.6490   28.5199   18.1163 H     744  UNL744      0.0521
   4464 H          17.3122   30.1324   17.9711 H     744  UNL744      0.2090
   4465 O          20.0066   29.4815   22.0516 O.3   745  UNL745     -0.3982
   4466 C          18.5908   29.4815   22.0516 C.3   745  UNL745      0.0330
   4467 H          18.2255   30.4907   22.2576 H     745  UNL745      0.0521
   4468 H          18.2256   28.7878   22.8128 H     745  UNL745      0.0521
   4469 H          18.2355   29.1612   21.0694 H     745  UNL745      0.0521
   4470 H          20.2923   29.7696   22.9353 H     745  UNL745      0.2090
   4471 O          20.0066   32.4816   -0.7277 O.3   746  UNL746     -0.3982
   4472 C          18.5908   32.4816   -0.7277 C.3   746  UNL746      0.0330
   4473 H          18.2255   32.7183    0.2747 H     746  UNL746      0.0521
   4474 H          18.2256   31.4995   -1.0377 H     746  UNL746      0.0521
   4475 H          18.2355   33.2386   -1.4307 H     746  UNL746      0.0521
   4476 H          20.2923   31.8005   -0.0952 H     746  UNL746      0.2090
   4477 O          19.8320   31.7654    2.0451 O.3   747  UNL747     -0.3982
   4478 C          18.7675   32.6990    2.0451 C.3   747  UNL747      0.0330
   4479 H          18.4096   32.8449    3.0673 H     747  UNL747      0.0521
   4480 H          17.9568   32.3284    1.4132 H     747  UNL747      0.0521
   4481 H          19.1296   33.6506    1.6488 H     747  UNL747      0.0521
   4482 H          19.4807   30.9317    2.4016 H     747  UNL747      0.2090
   4483 O          17.9418   32.5143    5.2640 O.3   748  UNL748     -0.3982
   4484 C          19.2114   32.5143    4.6375 C.3   748  UNL748      0.0330
   4485 H          19.2358   31.7453    3.8613 H     748  UNL748      0.0521
   4486 H          19.9864   32.3196    5.3827 H     748  UNL748      0.0521
   4487 H          19.3834   33.4929    4.1832 H     748  UNL748      0.0521
   4488 H          17.8174   31.6339    5.6576 H     748  UNL748      0.2090
   4489 O          18.0066   32.5143    7.6074 O.3   749  UNL749     -0.3982
   4490 C          16.5908   32.5143    7.6074 C.3   749  UNL749      0.0330
   4491 H          16.2255   31.7453    8.2926 H     749  UNL749      0.0521
   4492 H          16.2256   32.3196    6.5961 H     749  UNL749      0.0521
   4493 H          16.2355   33.4929    7.9386 H     749  UNL749      0.0521
   4494 H          18.2923   31.6339    7.3094 H     749  UNL749      0.2090
   4495 O          20.0066   32.3143   10.3350 O.3   750  UNL750     -0.3982
   4496 C          18.5908   32.3143   10.3350 C.3   750  UNL750      0.0330
   4497 H          18.2255   31.5453   11.0202 H     750  UNL750      0.0521
   4498 H          18.2256   32.1196    9.3237 H     750  UNL750      0.0521
   4499 H          18.2355   33.2929   10.6662 H     750  UNL750      0.0521
   4500 H          20.2923   31.4339   10.0370 H     750  UNL750      0.2090
   4501 O          19.6528   32.3307   12.2021 O.3   751  UNL751     -0.3982
   4502 C          18.5884   32.4647   13.1260 C.3   751  UNL751      0.0330
   4503 H          18.9032   33.1020   13.9561 H     751  UNL751      0.0521
   4504 H          18.3018   31.4782   13.4985 H     751  UNL751      0.0521
   4505 H          17.7350   32.9230   12.6208 H     751  UNL751      0.0521
   4506 H          20.3950   31.9215   12.6788 H     751  UNL751      0.2090
   4507 O          20.0066   32.3143   15.7901 O.3   752  UNL752     -0.3982
   4508 C          18.5908   32.3143   15.7901 C.3   752  UNL752      0.0330
   4509 H          18.2255   31.5453   16.4753 H     752  UNL752      0.0521
   4510 H          18.2256   32.1196   14.7788 H     752  UNL752      0.0521
   4511 H          18.2355   33.2929   16.1213 H     752  UNL752      0.0521
   4512 H          20.2923   31.4339   15.4921 H     752  UNL752      0.2090
   4513 O          20.0066   32.2301   18.4087 O.3   753  UNL753     -0.3982
   4514 C          18.5908   32.2301   18.4087 C.3   753  UNL753      0.0330
   4515 H          18.2255   33.0512   17.7868 H     753  UNL753      0.0521
   4516 H          18.2256   32.3437   19.4323 H     753  UNL753      0.0521
   4517 H          18.2355   31.2810   18.0006 H     753  UNL753      0.0521
   4518 H          20.2923   33.0840   18.7758 H     753  UNL753      0.2090
   4519 O          19.7081   31.8234   21.6687 O.3   754  UNL754     -0.3982
   4520 C          18.6437   32.6063   22.1772 C.3   754  UNL754      0.0330
   4521 H          19.0345   33.3324   22.8944 H     754  UNL754      0.0521
   4522 H          17.9117   31.9563   22.6627 H     754  UNL754      0.0521
   4523 H          18.1654   33.1358   21.3499 H     754  UNL754      0.0521
   4524 H          20.1129   31.3658   22.4252 H     754  UNL754      0.2090
   4525 O          20.0066   35.3556   -0.5752 O.3   755  UNL755     -0.3982
   4526 C          18.5908   35.3556   -0.5752 C.3   755  UNL755      0.0330
   4527 H          18.2255   34.5866    0.1100 H     755  UNL755      0.0521
   4528 H          18.2256   35.1609   -1.5865 H     755  UNL755      0.0521
   4529 H          18.2355   36.3342   -0.2440 H     755  UNL755      0.0521
   4530 H          20.2923   34.4752   -0.8732 H     755  UNL755      0.2090
   4531 O          19.7733   36.9173    2.0912 O.3   756  UNL756     -0.3982
   4532 C          18.3928   36.6496    2.2554 C.3   756  UNL756      0.0330
   4533 H          18.2531   35.5973    2.5153 H     756  UNL756      0.0521
   4534 H          17.8632   36.8803    1.3279 H     756  UNL756      0.0521
   4535 H          18.0027   37.2764    3.0607 H     756  UNL756      0.0521
   4536 H          20.0912   36.3469    1.3706 H     756  UNL756      0.2090
   4537 O          19.6473   36.1388    4.0604 O.3   757  UNL757     -0.3982
   4538 C          18.8560   36.6110    5.1353 C.3   757  UNL757      0.0330
   4539 H          18.5594   35.7703    5.7674 H     757  UNL757      0.0521
   4540 H          17.9701   37.1157    4.7425 H     757  UNL757      0.0521
   4541 H          19.4438   37.3180    5.7254 H     757  UNL757      0.0521
   4542 H          19.0995   35.5141    3.5553 H     757  UNL757      0.2090
   4543 O          19.6670   35.6828    6.9127 O.3   758  UNL758     -0.3982
   4544 C          18.6435   35.2535    7.7917 C.3   758  UNL758      0.0330
   4545 H          19.0863   34.7117    8.6311 H     758  UNL758      0.0521
   4546 H          17.9472   34.6062    7.2530 H     758  UNL758      0.0521
   4547 H          18.1077   36.1284    8.1674 H     758  UNL758      0.0521
   4548 H          20.1244   34.8854    6.5958 H     758  UNL758      0.2090
   4549 O          19.8497   34.6798   10.5187 O.3   759  UNL759     -0.3982
   4550 C          18.7530   35.4517   10.0649 C.3   759  UNL759      0.0330
   4551 H          18.4392   36.1397   10.8539 H     759  UNL759      0.0521
   4552 H          17.9271   34.7892    9.7947 H     759  UNL759      0.0521
   4553 H          19.0605   36.0240    9.1866 H     759  UNL759      0.0521
   4554 H          19.5467   34.1835   11.2981 H     759  UNL759      0.2090
   4555 O          17.7600   36.4522   13.4812 O.3   760  UNL760     -0.3982
   4556 C          18.9229   36.7653   12.7368 C.3   760  UNL760      0.0330
   4557 H          19.3896   35.8425   12.3831 H     760  UNL760      0.0521
   4558 H          19.6213   37.3211   13.3670 H     760  UNL760      0.0521
   4559 H          18.6408   37.3803   11.8790 H     760  UNL760      0.0521
   4560 H          18.0416   35.9064   14.2351 H     760  UNL760      0.2090
   4561 O          19.6218   36.7715   14.9833 O.3   761  UNL761     -0.3982
   4562 C          18.7853   36.4543   16.0807 C.3   761  UNL761      0.0330
   4563 H          19.0256   35.4526   16.4456 H     761  UNL761      0.0521
   4564 H          17.7394   36.4984   15.7674 H     761  UNL761      0.0521
   4565 H          18.9553   37.1809   16.8787 H     761  UNL761      0.0521
   4566 H          19.4488   36.1102   14.2917 H     761  UNL761      0.2090
   4567 O          17.9850   35.3556   17.9483 O.3   762  UNL762     -0.3982
   4568 C          19.2546   35.3556   18.5749 C.3   762  UNL762      0.0330
   4569 H          19.8854   34.5866   18.1221 H     762  UNL762      0.0521
   4570 H          19.1346   35.1609   19.6434 H     762  UNL762      0.0521
   4571 H          19.7198   36.3342   18.4351 H     762  UNL762      0.0521
   4572 H          17.5969   34.4752   18.0891 H     762  UNL762      0.2090
   4573 O          18.2800   36.9928   21.8075 O.3   763  UNL763     -0.3982
   4574 C          19.1552   35.9257   22.1236 C.3   763  UNL763      0.0330
   4575 H          18.6286   35.1912   22.7380 H     763  UNL763      0.0521
   4576 H          20.0230   36.3128   22.6631 H     763  UNL763      0.0521
   4577 H          19.4867   35.4517   21.1968 H     763  UNL763      0.0521
   4578 H          18.0027   37.3937   22.6489 H     763  UNL763      0.2090
   4579 O          22.9521    1.5595   -0.0061 O.3   764  UNL764     -0.3982
   4580 C          21.8877    1.1686   -0.8539 C.3   764  UNL764      0.0330
   4581 H          21.1612    0.5851   -0.2828 H     764  UNL764      0.0521
   4582 H          22.2800    0.5726   -1.6815 H     764  UNL764      0.0521
   4583 H          21.4022    2.0635   -1.2502 H     764  UNL764      0.0521
   4584 H          23.3634    0.7450    0.3302 H     764  UNL764      0.2090
   4585 O          22.8892    1.9345    2.1523 O.3   765  UNL765     -0.3982
   4586 C          21.8248    1.0009    2.1523 C.3   765  UNL765      0.0330
   4587 H          22.0572    0.1819    2.8375 H     765  UNL765      0.0521
   4588 H          21.6786    0.6137    1.1410 H     765  UNL765      0.0521
   4589 H          20.9124    1.5023    2.4835 H     765  UNL765      0.0521
   4590 H          23.6845    1.4610    1.8543 H     765  UNL765      0.2090
   4591 O          23.2516    0.9648    4.8511 O.3   766  UNL766     -0.3982
   4592 C          21.8358    0.9648    4.8511 C.3   766  UNL766      0.0330
   4593 H          21.4705    1.3511    3.8964 H     766  UNL766      0.0521
   4594 H          21.4706    1.5869    5.6718 H     766  UNL766      0.0521
   4595 H          21.4805   -0.0594    4.9872 H     766  UNL766      0.0521
   4596 H          23.5373    1.8861    4.7288 H     766  UNL766      0.2090
   4597 O          22.9778    0.5334    8.0048 O.3   767  UNL767     -0.3982
   4598 C          21.9134    1.3760    7.6028 C.3   767  UNL767      0.0330
   4599 H          21.0712    0.7657    7.2673 H     767  UNL767      0.0521
   4600 H          22.2498    2.0284    6.7933 H     767  UNL767      0.0521
   4601 H          21.6022    1.9860    8.4540 H     767  UNL767      0.0521
   4602 H          23.2323    0.0048    7.2294 H     767  UNL767      0.2090
   4603 O          21.2516    1.0329   10.4140 O.3   768  UNL768     -0.3982
   4604 C          19.8358    1.0329   10.4140 C.3   768  UNL768      0.0330
   4605 H          19.4705    0.5578    9.5001 H     768  UNL768      0.0521
   4606 H          19.4706    2.0611   10.4739 H     768  UNL768      0.0521
   4607 H          19.4805    0.4713   11.2811 H     768  UNL768      0.0521
   4608 H          21.5373    1.5382    9.6339 H     768  UNL768      0.2090
   4609 O          22.4516    1.0080   12.9061 O.3   769  UNL769     -0.3982
   4610 C          21.0358    1.0080   12.9061 C.3   769  UNL769      0.0330
   4611 H          20.6705    2.0008   12.6319 H     769  UNL769      0.0521
   4612 H          20.6706    0.7350   13.8991 H     769  UNL769      0.0521
   4613 H          20.6805    0.2770   12.1760 H     769  UNL769      0.0521
   4614 H          22.7373    1.6656   13.5629 H     769  UNL769      0.2090
   4615 O          22.0108    2.1631   15.4970 O.3   770  UNL770     -0.3982
   4616 C          22.4159    0.8482   15.8305 C.3   770  UNL770      0.0330
   4617 H          22.1541    0.1677   15.0164 H     770  UNL770      0.0521
   4618 H          21.9208    0.5366   16.7534 H     770  UNL770      0.0521
   4619 H          23.4983    0.8366   15.9784 H     770  UNL770      0.0521
   4620 H          21.0467    2.1420   15.3719 H     770  UNL770      0.2090
   4621 O          23.0703    0.5084   18.5787 O.3   771  UNL771     -0.3982
   4622 C          22.0082    1.4027   18.3019 C.3   771  UNL771      0.0330
   4623 H          21.7308    1.9343   19.2156 H     771  UNL771      0.0521
   4624 H          21.1511    0.8442   17.9181 H     771  UNL771      0.0521
   4625 H          22.3374    2.1232   17.5495 H     771  UNL771      0.0521
   4626 H          22.7487   -0.1184   19.2490 H     771  UNL771      0.2090
   4627 O          22.2516    1.2600   22.2452 O.3   772  UNL772     -0.3982
   4628 C          20.8358    1.2600   22.2452 C.3   772  UNL772      0.0330
   4629 H          20.4705    0.4910   22.9304 H     772  UNL772      0.0521
   4630 H          20.4706    1.0653   21.2339 H     772  UNL772      0.0521
   4631 H          20.4805    2.2386   22.5764 H     772  UNL772      0.0521
   4632 H          22.5373    0.3796   21.9472 H     772  UNL772      0.2090
   4633 O          23.2516    4.1013   -0.5752 O.3   773  UNL773     -0.3982
   4634 C          21.8358    4.1013   -0.5752 C.3   773  UNL773      0.0330
   4635 H          21.4705    3.3323    0.1100 H     773  UNL773      0.0521
   4636 H          21.4706    3.9066   -1.5865 H     773  UNL773      0.0521
   4637 H          21.4805    5.0799   -0.2440 H     773  UNL773      0.0521
   4638 H          23.5373    3.2209   -0.8732 H     773  UNL773      0.2090
   4639 O          23.0499    4.1605    1.4906 O.3   774  UNL774     -0.3982
   4640 C          21.8049    3.9266    2.1229 C.3   774  UNL774      0.0330
   4641 H          21.6624    4.6513    2.9283 H     774  UNL774      0.0521
   4642 H          21.7845    2.9106    2.5246 H     774  UNL774      0.0521
   4643 H          21.0056    4.0412    1.3870 H     774  UNL774      0.0521
   4644 H          23.7392    4.0518    2.1678 H     774  UNL774      0.2090
   4645 O          22.7687    4.7138    4.3234 O.3   775  UNL775     -0.3982
   4646 C          21.9858    3.6381    4.8076 C.3   775  UNL775      0.0330
   4647 H          21.0423    4.0222    5.2033 H     775  UNL775      0.0521
   4648 H          22.5346    3.1110    5.5919 H     775  UNL775      0.0521
   4649 H          21.7799    2.9498    3.9845 H     775  UNL775      0.0521
   4650 H          22.9352    5.3072    5.0755 H     775  UNL775      0.2090
   4651 O          23.2516    4.0928    7.6276 O.3   776  UNL776     -0.3982
   4652 C          21.8358    4.0928    7.6276 C.3   776  UNL776      0.0330
   4653 H          21.4705    3.2334    8.1954 H     776  UNL776      0.0521
   4654 H          21.4706    4.0452    6.5988 H     776  UNL776      0.0521
   4655 H          21.4805    5.0137    8.0958 H     776  UNL776      0.0521
   4656 H          23.5373    3.2642    7.2064 H     776  UNL776      0.2090
   4657 O          22.0271    4.9849   10.2064 O.3   777  UNL777     -0.3982
   4658 C          22.6378    3.7228   10.4028 C.3   777  UNL777      0.0330
   4659 H          22.8237    3.2523    9.4341 H     777  UNL777      0.0521
   4660 H          21.9832    3.0904   11.0074 H     777  UNL777      0.0521
   4661 H          23.5871    3.8648   10.9245 H     777  UNL777      0.0521
   4662 H          21.1876    4.8269    9.7417 H     777  UNL777      0.2090
   4663 O          22.0650    4.6522   12.1840 O.3   778  UNL778     -0.3982
   4664 C          22.3378    3.6520   13.1482 C.3   778  UNL778      0.0330
   4665 H          21.4176    3.1120   13.3848 H     778  UNL778      0.0521
   4666 H          22.7431    4.1157   14.0508 H     778  UNL778      0.0521
   4667 H          23.0720    2.9544   12.7385 H     778  UNL778      0.0521
   4668 H          21.4110    5.2558   12.5758 H     778  UNL778      0.2090
   4669 O          23.2516    4.1013   15.7901 O.3   779  UNL779     -0.3982
   4670 C          21.8358    4.1013   15.7901 C.3   779  UNL779      0.0330
   4671 H          21.4705    3.3323   16.4753 H     779  UNL779      0.0521
   4672 H          21.4706    3.9066   14.7788 H     779  UNL779      0.0521
   4673 H          21.4805    5.0799   16.1213 H     779  UNL779      0.0521
   4674 H          23.5373    3.2209   15.4921 H     779  UNL779      0.2090
   4675 O          23.2516    4.0333   18.6006 O.3   780  UNL780     -0.3982
   4676 C          21.8358    4.0333   18.6006 C.3   780  UNL780      0.0330
   4677 H          21.4705    3.0033   18.6087 H     780  UNL780      0.0521
   4678 H          21.4706    4.5537   17.7119 H     780  UNL780      0.0521
   4679 H          21.4805    4.5506   19.4949 H     780  UNL780      0.0521
   4680 H          23.5373    3.5679   17.7961 H     780  UNL780      0.2090
   4681 O          21.8451    3.0912   20.6258 O.3   781  UNL781     -0.3982
   4682 C          22.4530    4.1840   21.2898 C.3   781  UNL781      0.0330
   4683 H          22.3667    4.0484   22.3708 H     781  UNL781      0.0521
   4684 H          21.9632    5.1130   20.9880 H     781  UNL781      0.0521
   4685 H          23.5091    4.2249   21.0131 H     781  UNL781      0.0521
   4686 H          20.9095    3.0806   20.8906 H     781  UNL781      0.2090
   4687 O          23.2516    6.9426   -0.5752 O.3   782  UNL782     -0.3982
   4688 C          21.8358    6.9426   -0.5752 C.3   782  UNL782      0.0330
   4689 H          21.4705    6.1736    0.1100 H     782  UNL782      0.0521
   4690 H          21.4706    6.7479   -1.5865 H     782  UNL782      0.0521
   4691 H          21.4805    7.9212   -0.2440 H     782  UNL782      0.0521
   4692 H          23.5373    6.0622   -0.8732 H     782  UNL782      0.2090
   4693 O          23.2516    6.9341    2.1725 O.3   783  UNL783     -0.3982
   4694 C          21.8358    6.9341    2.1725 C.3   783  UNL783      0.0330
   4695 H          21.4705    6.0747    2.7403 H     783  UNL783      0.0521
   4696 H          21.4706    6.8865    1.1437 H     783  UNL783      0.0521
   4697 H          21.4805    7.8550    2.6407 H     783  UNL783      0.0521
   4698 H          23.5373    6.1055    1.7513 H     783  UNL783      0.2090
   4699 O          23.2516    6.8655    4.6944 O.3   784  UNL784     -0.3982
   4700 C          21.8358    6.8655    4.6944 C.3   784  UNL784      0.0330
   4701 H          21.4705    7.4446    5.5462 H     784  UNL784      0.0521
   4702 H          21.4706    5.8375    4.7555 H     784  UNL784      0.0521
   4703 H          21.4805    7.3215    3.7674 H     784  UNL784      0.0521
   4704 H          23.5373    6.4552    5.5284 H     784  UNL784      0.2090
   4705 O          22.0516    6.8746    7.6904 O.3   785  UNL785     -0.3982
   4706 C          20.6358    6.8746    7.6904 C.3   785  UNL785      0.0330
   4707 H          20.2705    5.8446    7.6985 H     785  UNL785      0.0521
   4708 H          20.2706    7.3950    6.8017 H     785  UNL785      0.0521
   4709 H          20.2805    7.3919    8.5847 H     785  UNL785      0.0521
   4710 H          22.3373    6.4092    6.8859 H     785  UNL785      0.2090
   4711 O          21.2516    6.7421   10.4277 O.3   786  UNL786     -0.3982
   4712 C          19.8358    6.7421   10.4277 C.3   786  UNL786      0.0330
   4713 H          19.4705    6.0975    9.6244 H     786  UNL786      0.0521
   4714 H          19.4706    7.7621   10.2854 H     786  UNL786      0.0521
   4715 H          19.4805    6.3609   11.3879 H     786  UNL786      0.0521
   4716 H          21.5373    7.0851    9.5638 H     786  UNL786      0.2090
   4717 O          23.2516    6.9426   13.0625 O.3   787  UNL787     -0.3982
   4718 C          21.8358    6.9426   13.0625 C.3   787  UNL787      0.0330
   4719 H          21.4705    6.1736   13.7477 H     787  UNL787      0.0521
   4720 H          21.4706    6.7479   12.0512 H     787  UNL787      0.0521
   4721 H          21.4805    7.9212   13.3937 H     787  UNL787      0.0521
   4722 H          23.5373    6.0622   12.7645 H     787  UNL787      0.2090
   4723 O          23.2516    6.9389   15.6828 O.3   788  UNL788     -0.3982
   4724 C          21.8358    6.9389   15.6828 C.3   788  UNL788      0.0330
   4725 H          21.4705    6.8126   16.7050 H     788  UNL788      0.0521
   4726 H          21.4706    6.1257   15.0509 H     788  UNL788      0.0521
   4727 H          21.4805    7.8931   15.2866 H     788  UNL788      0.0521
   4728 H          23.5373    6.0806   16.0393 H     788  UNL788      0.2090
   4729 O          22.9133    6.1956   17.9450 O.3   789  UNL789     -0.3982
   4730 C          21.8489    6.8112   18.6469 C.3   789  UNL789      0.0330
   4731 H          21.3935    7.5805   18.0184 H     789  UNL789      0.0521
   4732 H          22.2292    7.2570   19.5692 H     789  UNL789      0.0521
   4733 H          21.1004    6.0542   18.8924 H     789  UNL789      0.0521
   4734 H          23.5612    6.8914   17.7410 H     789  UNL789      0.2090
   4735 O          23.2516    6.9426   22.2452 O.3   790  UNL790     -0.3982
   4736 C          21.8358    6.9426   22.2452 C.3   790  UNL790      0.0330
   4737 H          21.4705    6.1736   22.9304 H     790  UNL790      0.0521
   4738 H          21.4706    6.7479   21.2339 H     790  UNL790      0.0521
   4739 H          21.4805    7.9212   22.5764 H     790  UNL790      0.0521
   4740 H          23.5373    6.0622   21.9472 H     790  UNL790      0.2090
   4741 O          23.2516    9.5319   -0.7317 O.3   791  UNL791     -0.3982
   4742 C          21.8358    9.5319   -0.7317 C.3   791  UNL791      0.0330
   4743 H          21.4705   10.5247   -1.0058 H     791  UNL791      0.0521
   4744 H          21.4706    9.2589    0.2614 H     791  UNL791      0.0521
   4745 H          21.4805    8.8009   -1.4617 H     791  UNL791      0.0521
   4746 H          23.5373   10.1895   -0.0748 H     791  UNL791      0.2090
   4747 O          21.2516    9.7172    1.9724 O.3   792  UNL792     -0.3982
   4748 C          19.8358    9.7172    1.9724 C.3   792  UNL792      0.0330
   4749 H          19.4705   10.2288    2.8664 H     792  UNL792      0.0521
   4750 H          19.4706    8.6875    1.9541 H     792  UNL792      0.0521
   4751 H          19.4805   10.2433    1.0833 H     792  UNL792      0.0521
   4752 H          21.5373    9.2438    2.7723 H     792  UNL792      0.2090
   4753 O          23.2516    9.5319    4.7234 O.3   793  UNL793     -0.3982
   4754 C          21.8358    9.5319    4.7234 C.3   793  UNL793      0.0330
   4755 H          21.4705   10.5247    4.4493 H     793  UNL793      0.0521
   4756 H          21.4706    9.2589    5.7165 H     793  UNL793      0.0521
   4757 H          21.4805    8.8009    3.9934 H     793  UNL793      0.0521
   4758 H          23.5373   10.1895    5.3803 H     793  UNL793      0.2090
   4759 O          22.0306    9.7754    7.7815 O.3   794  UNL794     -0.3982
   4760 C          20.6294    9.7754    7.5783 C.3   794  UNL794      0.0330
   4761 H          20.1865    8.9160    8.0878 H     794  UNL794      0.0521
   4762 H          20.4157    9.7278    6.5078 H     794  UNL794      0.0521
   4763 H          20.2106   10.6963    7.9907 H     794  UNL794      0.0521
   4764 H          22.3738    8.9468    7.4056 H     794  UNL794      0.2090
   4765 O          21.8373    9.0039   10.0992 O.3   795  UNL795     -0.3982
   4766 C          20.8261    9.9180   10.4819 C.3   795  UNL795      0.0330
   4767 H          19.9520    9.3675   10.8386 H     795  UNL795      0.0521
   4768 H          20.5537   10.5406    9.6263 H     795  UNL795      0.0521
   4769 H          21.2068   10.5530   11.2853 H     795  UNL795      0.0521
   4770 H          21.4706    8.4546    9.3856 H     795  UNL795      0.2090
   4771 O          21.6516    9.6158   13.1641 O.3   796  UNL796     -0.3982
   4772 C          20.2358    9.6158   13.1641 C.3   796  UNL796      0.0330
   4773 H          19.8705    8.8109   12.5215 H     796  UNL796      0.0521
   4774 H          19.8706   10.5799   12.8019 H     796  UNL796      0.0521
   4775 H          19.8805    9.4541   14.1845 H     796  UNL796      0.0521
   4776 H          21.9373    9.7613   12.2461 H     796  UNL796      0.2090
   4777 O          23.0712    9.7159   15.1301 O.3   797  UNL797     -0.3982
   4778 C          22.0068    9.7159   16.0636 C.3   797  UNL797      0.0330
   4779 H          21.7375    8.6859   16.3106 H     797  UNL797      0.0521
   4780 H          21.1462   10.2363   15.6363 H     797  UNL797      0.0521
   4781 H          22.3293   10.2332   16.9702 H     797  UNL797      0.0521
   4782 H          22.7555    9.2505   14.3368 H     797  UNL797      0.2090
   4783 O          21.6516    9.3404   18.3533 O.3   798  UNL798     -0.3982
   4784 C          20.2358    9.3404   18.3533 C.3   798  UNL798      0.0330
   4785 H          19.8705   10.3513   18.1560 H     798  UNL798      0.0521
   4786 H          19.8706    8.9922   19.3225 H     798  UNL798      0.0521
   4787 H          19.8805    8.6675   17.5693 H     798  UNL798      0.0521
   4788 H          21.9373    9.9458   19.0586 H     798  UNL798      0.2090
   4789 O          22.0516    9.5924   21.8516 O.3   799  UNL799     -0.3982
   4790 C          20.6358    9.5924   21.8516 C.3   799  UNL799      0.0330
   4791 H          20.2705   10.6016   22.0576 H     799  UNL799      0.0521
   4792 H          20.2706    8.8987   22.6128 H     799  UNL799      0.0521
   4793 H          20.2805    9.2721   20.8694 H     799  UNL799      0.0521
   4794 H          22.3373    9.8805   22.7353 H     799  UNL799      0.2090
   4795 O          23.2516   12.5065   -0.7742 O.3   800  UNL800     -0.3982
   4796 C          21.8358   12.5065   -0.7742 C.3   800  UNL800      0.0330
   4797 H          21.4705   13.3037   -0.1219 H     800  UNL800      0.0521
   4798 H          21.4706   11.5382   -0.4235 H     800  UNL800      0.0521
   4799 H          21.4805   12.6805   -1.7925 H     800  UNL800      0.0521
   4800 H          23.5373   12.3500    0.1420 H     800  UNL800      0.2090
   4801 O          21.6453   11.5316    2.1523 O.3   801  UNL801     -0.3982
   4802 C          22.4926   12.6658    2.1523 C.3   801  UNL801      0.0330
   4803 H          22.0952   13.4187    2.8375 H     801  UNL801      0.0521
   4804 H          22.5552   13.0749    1.1410 H     801  UNL801      0.0521
   4805 H          23.4893   12.3648    2.4835 H     801  UNL801      0.0521
   4806 H          20.7690   11.8296    1.8543 H     801  UNL801      0.2090
   4807 O          23.2516   12.6252    4.8799 O.3   802  UNL802     -0.3982
   4808 C          21.8358   12.6252    4.8799 C.3   802  UNL802      0.0330
   4809 H          21.4705   11.8562    5.5651 H     802  UNL802      0.0521
   4810 H          21.4706   12.4305    3.8686 H     802  UNL802      0.0521
   4811 H          21.4805   13.6038    5.2111 H     802  UNL802      0.0521
   4812 H          23.5373   11.7448    4.5819 H     802  UNL802      0.2090
   4813 O          23.0391   13.0414    7.2096 O.3   803  UNL803     -0.3982
   4814 C          21.9549   12.1844    7.5172 C.3   803  UNL803      0.0330
   4815 H          21.0160   12.7363    7.4267 H     803  UNL803      0.0521
   4816 H          22.0687   11.8021    8.5345 H     803  UNL803      0.0521
   4817 H          21.9526   11.3481    6.8142 H     803  UNL803      0.0521
   4818 H          23.0152   13.7732    7.8495 H     803  UNL803      0.2090
   4819 O          23.2516   12.5552   10.1532 O.3   804  UNL804     -0.3982
   4820 C          21.8358   12.5552   10.1532 C.3   804  UNL804      0.0330
   4821 H          21.4705   13.0889   11.0342 H     804  UNL804      0.0521
   4822 H          21.4706   11.5253   10.1604 H     804  UNL804      0.0521
   4823 H          21.4805   13.0591    9.2513 H     804  UNL804      0.0521
   4824 H          23.5373   12.1018   10.9646 H     804  UNL804      0.2090
   4825 O          23.1746   12.8629   13.2066 O.3   805  UNL805     -0.3982
   4826 C          21.8240   12.5541   12.9153 C.3   805  UNL805      0.0330
   4827 H          21.3524   12.1112   13.7961 H     805  UNL805      0.0521
   4828 H          21.7819   11.8554   12.0762 H     805  UNL805      0.0521
   4829 H          21.2990   13.4739   12.6473 H     805  UNL805      0.0521
   4830 H          23.6146   12.0280   13.4407 H     805  UNL805      0.2090
   4831 O          23.2516   12.5798   15.8571 O.3   806  UNL806     -0.3982
   4832 C          21.8358   12.5798   15.8571 C.3   806  UNL806      0.0330
   4833 H          21.4705   11.5684   16.0518 H     806  UNL806      0.0521
   4834 H          21.4706   12.9305   14.8887 H     806  UNL806      0.0521
   4835 H          21.4805   13.2507   16.6427 H     806  UNL806      0.0521
   4836 H          23.5373   11.9762   15.1502 H     806  UNL806      0.2090
   4837 O          23.1989   12.5613   18.1116 O.3   807  UNL807     -0.3982
   4838 C          21.8662   12.2755   18.4949 C.3   807  UNL807      0.0330
   4839 H          21.1912   13.0059   18.0418 H     807  UNL807      0.0521
   4840 H          21.7834   12.3133   19.5838 H     807  UNL807      0.0521
   4841 H          21.6032   11.2742   18.1461 H     807  UNL807      0.0521
   4842 H          23.4036   13.4553   18.4346 H     807  UNL807      0.2090
   4843 O          21.1353   12.3138   21.3211 O.3   808  UNL808     -0.3982
   4844 C          22.4820   12.3483   21.7564 C.3   808  UNL808      0.0330
   4845 H          22.6151   13.1671   22.4679 H     808  UNL808      0.0521
   4846 H          23.1406   12.4885   20.8958 H     808  UNL808      0.0521
   4847 H          22.7217   11.4011   22.2453 H     808  UNL808      0.0521
   4848 H          20.9519   13.1667   20.8916 H     808  UNL808      0.2090
   4849 O          21.2516   15.4211   -0.7399 O.3   809  UNL809     -0.3982
   4850 C          19.8358   15.4211   -0.7399 C.3   809  UNL809      0.0330
   4851 H          19.4705   15.7718    0.2286 H     809  UNL809      0.0521
   4852 H          19.4706   14.4098   -0.9346 H     809  UNL809      0.0521
   4853 H          19.4805   16.0920   -1.5255 H     809  UNL809      0.0521
   4854 H          21.5373   14.8175   -0.0330 H     809  UNL809      0.2090
   4855 O          23.0402   15.4487    2.7501 O.3   810  UNL810     -0.3982
   4856 C          21.9758   15.4487    1.8165 C.3   810  UNL810      0.0330
   4857 H          21.0238   15.5247    2.3479 H     810  UNL810      0.0521
   4858 H          22.0050   14.5276    1.2293 H     810  UNL810      0.0521
   4859 H          22.0879   16.3069    1.1498 H     810  UNL810      0.0521
   4860 H          22.9138   14.6766    3.3275 H     810  UNL810      0.2090
   4861 O          23.2516   15.2145    4.7234 O.3   811  UNL811     -0.3982
   4862 C          21.8358   15.2145    4.7234 C.3   811  UNL811      0.0330
   4863 H          21.4705   16.2073    4.4493 H     811  UNL811      0.0521
   4864 H          21.4706   14.9415    5.7165 H     811  UNL811      0.0521
   4865 H          21.4805   14.4835    3.9934 H     811  UNL811      0.0521
   4866 H          23.5373   15.8721    5.3803 H     811  UNL811      0.2090
   4867 O          21.8516   15.1912    7.4810 O.3   812  UNL812     -0.3982
   4868 C          20.4358   15.1912    7.4810 C.3   812  UNL812      0.0330
   4869 H          20.0705   16.0853    6.9697 H     812  UNL812      0.0521
   4870 H          20.0706   15.1725    8.5107 H     812  UNL812      0.0521
   4871 H          20.0805   14.3022    6.9546 H     812  UNL812      0.0521
   4872 H          22.1373   15.9909    7.9547 H     812  UNL812      0.2090
   4873 O          23.2516   15.3801   10.1453 O.3   813  UNL813     -0.3982
   4874 C          21.8358   15.3801   10.1453 C.3   813  UNL813      0.0330
   4875 H          21.4705   16.0148   10.9566 H     813  UNL813      0.0521
   4876 H          21.4706   14.3585   10.2750 H     813  UNL813      0.0521
   4877 H          21.4805   15.7732    9.1899 H     813  UNL813      0.0521
   4878 H          23.5373   15.0265   11.0049 H     813  UNL813      0.2090
   4879 O          23.2516   15.4665   13.0625 O.3   814  UNL814     -0.3982
   4880 C          21.8358   15.4665   13.0625 C.3   814  UNL814      0.0330
   4881 H          21.4705   14.6975   13.7477 H     814  UNL814      0.0521
   4882 H          21.4706   15.2718   12.0512 H     814  UNL814      0.0521
   4883 H          21.4805   16.4451   13.3937 H     814  UNL814      0.0521
   4884 H          23.5373   14.5861   12.7645 H     814  UNL814      0.2090
   4885 O          22.7124   14.5530   15.1912 O.3   815  UNL815     -0.3982
   4886 C          21.9121   15.5849   15.7383 C.3   815  UNL815      0.0330
   4887 H          22.5524   16.4038   16.0755 H     815  UNL815      0.0521
   4888 H          21.3328   15.1919   16.5773 H     815  UNL815      0.0521
   4889 H          21.2302   15.9521   14.9677 H     815  UNL815      0.0521
   4890 H          23.3066   14.2474   15.8976 H     815  UNL815      0.2090
   4891 O          23.2516   15.3985   18.6006 O.3   816  UNL816     -0.3982
   4892 C          21.8358   15.3985   18.6006 C.3   816  UNL816      0.0330
   4893 H          21.4705   14.3685   18.6087 H     816  UNL816      0.0521
   4894 H          21.4706   15.9189   17.7119 H     816  UNL816      0.0521
   4895 H          21.4805   15.9158   19.4949 H     816  UNL816      0.0521
   4896 H          23.5373   14.9331   17.7961 H     816  UNL816      0.2090
   4897 O          23.2516   15.3998   22.0653 O.3   817  UNL817     -0.3982
   4898 C          21.8358   15.3998   22.0653 C.3   817  UNL817      0.0330
   4899 H          21.4705   15.9114   22.9592 H     817  UNL817      0.0521
   4900 H          21.4706   14.3701   22.0470 H     817  UNL817      0.0521
   4901 H          21.4805   15.9259   21.1762 H     817  UNL817      0.0521
   4902 H          23.5373   14.9264   22.8652 H     817  UNL817      0.2090
   4903 O          23.0802   18.3060    0.1916 O.3   818  UNL818     -0.3982
   4904 C          22.0711   17.9905   -0.7501 C.3   818  UNL818      0.0330
   4905 H          22.5295   17.5771   -1.6520 H     818  UNL818      0.0521
   4906 H          21.5063   18.8929   -0.9964 H     818  UNL818      0.0521
   4907 H          21.3973   17.2493   -0.3139 H     818  UNL818      0.0521
   4908 H          23.6621   18.9653   -0.2234 H     818  UNL818      0.2090
   4909 O          23.2516   18.0245    2.1656 O.3   819  UNL819     -0.3982
   4910 C          21.8358   18.0245    2.1656 C.3   819  UNL819      0.0330
   4911 H          21.4705   18.1238    1.1404 H     819  UNL819      0.0521
   4912 H          21.4706   18.8541    2.7758 H     819  UNL819      0.0521
   4913 H          21.4805   17.0812    2.5869 H     819  UNL819      0.0521
   4914 H          23.5373   18.8731    1.7866 H     819  UNL819      0.2090
   4915 O          23.2516   18.0558    4.7234 O.3   820  UNL820     -0.3982
   4916 C          21.8358   18.0558    4.7234 C.3   820  UNL820      0.0330
   4917 H          21.4705   19.0486    4.4493 H     820  UNL820      0.0521
   4918 H          21.4706   17.7828    5.7165 H     820  UNL820      0.0521
   4919 H          21.4805   17.3248    3.9934 H     820  UNL820      0.0521
   4920 H          23.5373   18.7134    5.3803 H     820  UNL820      0.2090
   4921 O          22.4516   18.2398    7.6904 O.3   821  UNL821     -0.3982
   4922 C          21.0358   18.2398    7.6904 C.3   821  UNL821      0.0330
   4923 H          20.6705   17.2098    7.6985 H     821  UNL821      0.0521
   4924 H          20.6706   18.7602    6.8017 H     821  UNL821      0.0521
   4925 H          20.6805   18.7571    8.5847 H     821  UNL821      0.0521
   4926 H          22.7373   17.7744    6.8859 H     821  UNL821      0.2090
   4927 O          21.2516   18.2765   10.1841 O.3   822  UNL822     -0.3982
   4928 C          19.8358   18.2765   10.1841 C.3   822  UNL822      0.0330
   4929 H          19.4705   18.4991   11.1897 H     822  UNL822      0.0521
   4930 H          19.4706   17.2989    9.8603 H     822  UNL822      0.0521
   4931 H          19.4805   19.0433    9.4917 H     822  UNL822      0.0521
   4932 H          21.5373   17.5867   10.8070 H     822  UNL822      0.2090
   4933 O          21.4516   18.0558   12.9061 O.3   823  UNL823     -0.3982
   4934 C          20.0358   18.0558   12.9061 C.3   823  UNL823      0.0330
   4935 H          19.6705   19.0486   12.6319 H     823  UNL823      0.0521
   4936 H          19.6706   17.7828   13.8991 H     823  UNL823      0.0521
   4937 H          19.6805   17.3248   12.1760 H     823  UNL823      0.0521
   4938 H          21.7373   18.7134   13.5629 H     823  UNL823      0.2090
   4939 O          23.2516   18.0558   15.6336 O.3   824  UNL824     -0.3982
   4940 C          21.8358   18.0558   15.6336 C.3   824  UNL824      0.0330
   4941 H          21.4705   19.0486   15.3595 H     824  UNL824      0.0521
   4942 H          21.4706   17.7828   16.6267 H     824  UNL824      0.0521
   4943 H          21.4805   17.3248   14.9036 H     824  UNL824      0.0521
   4944 H          23.5373   18.7134   16.2905 H     824  UNL824      0.2090
   4945 O          21.2516   18.0558   18.3612 O.3   825  UNL825     -0.3982
   4946 C          19.8358   18.0558   18.3612 C.3   825  UNL825      0.0330
   4947 H          19.4705   19.0486   18.0870 H     825  UNL825      0.0521
   4948 H          19.4706   17.7828   19.3542 H     825  UNL825      0.0521
   4949 H          19.4805   17.3248   17.6311 H     825  UNL825      0.0521
   4950 H          21.5373   18.7134   19.0180 H     825  UNL825      0.2090
   4951 O          21.6516   18.2765   21.8943 O.3   826  UNL826     -0.3982
   4952 C          20.2358   18.2765   21.8943 C.3   826  UNL826      0.0330
   4953 H          19.8705   18.4991   22.8999 H     826  UNL826      0.0521
   4954 H          19.8706   17.2989   21.5705 H     826  UNL826      0.0521
   4955 H          19.8805   19.0433   21.2019 H     826  UNL826      0.0521
   4956 H          21.9373   17.5867   22.5172 H     826  UNL826      0.2090
   4957 O          23.2516   20.8971   -0.7317 O.3   827  UNL827     -0.3982
   4958 C          21.8358   20.8971   -0.7317 C.3   827  UNL827      0.0330
   4959 H          21.4705   21.8899   -1.0058 H     827  UNL827      0.0521
   4960 H          21.4706   20.6241    0.2614 H     827  UNL827      0.0521
   4961 H          21.4805   20.1661   -1.4617 H     827  UNL827      0.0521
   4962 H          23.5373   21.5547   -0.0748 H     827  UNL827      0.2090
   4963 O          22.0516   20.8971    1.9959 O.3   828  UNL828     -0.3982
   4964 C          20.6358   20.8971    1.9959 C.3   828  UNL828      0.0330
   4965 H          20.2705   21.8899    1.7217 H     828  UNL828      0.0521
   4966 H          20.2706   20.6241    2.9889 H     828  UNL828      0.0521
   4967 H          20.2805   20.1661    1.2658 H     828  UNL828      0.0521
   4968 H          22.3373   21.5547    2.6527 H     828  UNL828      0.2090
   4969 O          23.2516   20.8971    4.7234 O.3   829  UNL829     -0.3982
   4970 C          21.8358   20.8971    4.7234 C.3   829  UNL829      0.0330
   4971 H          21.4705   21.8899    4.4493 H     829  UNL829      0.0521
   4972 H          21.4706   20.6241    5.7165 H     829  UNL829      0.0521
   4973 H          21.4805   20.1661    3.9934 H     829  UNL829      0.0521
   4974 H          23.5373   21.5547    5.3803 H     829  UNL829      0.2090
   4975 O          22.0516   20.8971    7.4510 O.3   830  UNL830     -0.3982
   4976 C          20.6358   20.8971    7.4510 C.3   830  UNL830      0.0330
   4977 H          20.2705   21.8899    7.1768 H     830  UNL830      0.0521
   4978 H          20.2706   20.6241    8.4440 H     830  UNL830      0.0521
   4979 H          20.2805   20.1661    6.7209 H     830  UNL830      0.0521
   4980 H          22.3373   21.5547    8.1078 H     830  UNL830      0.2090
   4981 O          22.7796   20.9654   11.1894 O.3   831  UNL831     -0.3982
   4982 C          21.8722   20.8872   10.1054 C.3   831  UNL831      0.0330
   4983 H          22.3935   20.5182    9.2185 H     831  UNL831      0.0521
   4984 H          21.4520   21.8766    9.9088 H     831  UNL831      0.0521
   4985 H          21.0665   20.1968   10.3655 H     831  UNL831      0.0521
   4986 H          23.4827   21.5847   10.9294 H     831  UNL831      0.2090
   4987 O          22.4483   20.8371   13.0625 O.3   832  UNL832     -0.3982
   4988 C          21.0908   21.2393   13.0625 C.3   832  UNL832      0.0330
   4989 H          20.5221   20.6057   13.7477 H     832  UNL832      0.0521
   4990 H          20.6853   21.1563   12.0512 H     832  UNL832      0.0521
   4991 H          21.0281   22.2785   13.3937 H     832  UNL832      0.0521
   4992 H          22.4721   19.9119   12.7645 H     832  UNL832      0.2090
   4993 O          22.4516   21.1356   15.6633 O.3   833  UNL833     -0.3982
   4994 C          21.0358   21.1356   15.6633 C.3   833  UNL833      0.0330
   4995 H          20.6705   21.1573   16.6930 H     833  UNL833      0.0521
   4996 H          20.6706   20.2401   15.1546 H     833  UNL833      0.0521
   4997 H          20.6805   22.0230   15.1342 H     833  UNL833      0.0521
   4998 H          22.7373   20.3373   16.1392 H     833  UNL833      0.2090
   4999 O          23.1865   20.8260   18.8256 O.3   834  UNL834     -0.3982
   5000 C          21.8996   20.9038   18.2406 C.3   834  UNL834      0.0330
   5001 H          21.7768   21.8755   17.7559 H     834  UNL834      0.0521
   5002 H          21.1385   20.7714   19.0135 H     834  UNL834      0.0521
   5003 H          21.7998   20.1118   17.4947 H     834  UNL834      0.0521
   5004 H          23.2454   21.5404   19.4826 H     834  UNL834      0.2090
   5005 O          21.3837   21.5383   21.6732 O.3   835  UNL835     -0.3982
   5006 C          22.4595   20.7678   22.1766 C.3   835  UNL835      0.0330
   5007 H          22.0854   20.0611   22.9216 H     835  UNL835      0.0521
   5008 H          23.2030   21.4294   22.6276 H     835  UNL835      0.0521
   5009 H          22.9179   20.2164   21.3524 H     835  UNL835      0.0521
   5010 H          20.9971   22.0159   22.4268 H     835  UNL835      0.2090
   5011 O          23.2516   23.9904   -0.5752 O.3   836  UNL836     -0.3982
   5012 C          21.8358   23.9904   -0.5752 C.3   836  UNL836      0.0330
   5013 H          21.4705   23.2214    0.1100 H     836  UNL836      0.0521
   5014 H          21.4706   23.7957   -1.5865 H     836  UNL836      0.0521
   5015 H          21.4805   24.9690   -0.2440 H     836  UNL836      0.0521
   5016 H          23.5373   23.1100   -0.8732 H     836  UNL836      0.2090
   5017 O          22.4940   24.7163    2.6728 O.3   837  UNL837     -0.3982
   5018 C          21.9437   23.7046    1.8494 C.3   837  UNL837      0.0330
   5019 H          21.5491   22.8995    2.4743 H     837  UNL837      0.0521
   5020 H          22.7166   23.3166    1.1816 H     837  UNL837      0.0521
   5021 H          21.1329   24.1323    1.2550 H     837  UNL837      0.0521
   5022 H          23.2103   24.3074    3.1879 H     837  UNL837      0.2090
   5023 O          23.2516   23.9904    4.8799 O.3   838  UNL838     -0.3982
   5024 C          21.8358   23.9904    4.8799 C.3   838  UNL838      0.0330
   5025 H          21.4705   23.2214    5.5651 H     838  UNL838      0.0521
   5026 H          21.4706   23.7957    3.8686 H     838  UNL838      0.0521
   5027 H          21.4805   24.9690    5.2111 H     838  UNL838      0.0521
   5028 H          23.5373   23.1100    4.5819 H     838  UNL838      0.2090
   5029 O          22.0892   24.6649    7.6074 O.3   839  UNL839     -0.3982
   5030 C          21.0248   23.7313    7.6074 C.3   839  UNL839      0.0330
   5031 H          21.2572   22.9123    8.2926 H     839  UNL839      0.0521
   5032 H          20.8786   23.3441    6.5961 H     839  UNL839      0.0521
   5033 H          20.1124   24.2327    7.9386 H     839  UNL839      0.0521
   5034 H          22.8845   24.1914    7.3094 H     839  UNL839      0.2090
   5035 O          22.0516   23.9904   10.3350 O.3   840  UNL840     -0.3982
   5036 C          20.6358   23.9904   10.3350 C.3   840  UNL840      0.0330
   5037 H          20.2705   23.2214   11.0202 H     840  UNL840      0.0521
   5038 H          20.2706   23.7957    9.3237 H     840  UNL840      0.0521
   5039 H          20.2805   24.9690   10.6662 H     840  UNL840      0.0521
   5040 H          22.3373   23.1100   10.0370 H     840  UNL840      0.2090
   5041 O          22.8594   23.3126   13.6693 O.3   841  UNL841     -0.3982
   5042 C          21.8561   24.0338   12.9781 C.3   841  UNL841      0.0330
   5043 H          21.4271   23.4037   12.1950 H     841  UNL841      0.0521
   5044 H          22.2912   24.9345   12.5383 H     841  UNL841      0.0521
   5045 H          21.0724   24.3178   13.6843 H     841  UNL841      0.0521
   5046 H          23.5404   23.0743   13.0174 H     841  UNL841      0.2090
   5047 O          23.2516   23.7504   15.8597 O.3   842  UNL842     -0.3982
   5048 C          21.8358   23.7504   15.8597 C.3   842  UNL842      0.0330
   5049 H          21.4705   23.3738   14.9010 H     842  UNL842      0.0521
   5050 H          21.4706   24.7665   16.0272 H     842  UNL842      0.0521
   5051 H          21.4805   23.1008   16.6631 H     842  UNL842      0.0521
   5052 H          23.5373   24.3348   15.1369 H     842  UNL842      0.2090
   5053 O          23.2516   23.9494   18.3569 O.3   843  UNL843     -0.3982
   5054 C          21.8358   23.9494   18.3569 C.3   843  UNL843      0.0330
   5055 H          21.4705   24.2626   19.3381 H     843  UNL843      0.0521
   5056 H          21.4706   22.9463   18.1235 H     843  UNL843      0.0521
   5057 H          21.4805   24.6499   17.5975 H     843  UNL843      0.0521
   5058 H          23.5373   23.3191   19.0400 H     843  UNL843      0.2090
   5059 O          21.5271   24.6058   22.6293 O.3   844  UNL844     -0.3982
   5060 C          22.4816   23.7686   22.0028 C.3   844  UNL844      0.0330
   5061 H          21.9928   23.1744   21.2266 H     844  UNL844      0.0521
   5062 H          22.9359   23.1112   22.7480 H     844  UNL844      0.0521
   5063 H          23.2562   24.3909   21.5485 H     844  UNL844      0.0521
   5064 H          20.8531   24.0259   23.0229 H     844  UNL844      0.2090
   5065 O          21.8165   26.8317   -1.2976 O.3   845  UNL845     -0.3982
   5066 C          20.7521   26.8317   -0.3641 C.3   845  UNL845      0.0330
   5067 H          20.9292   26.0627    0.3919 H     845  UNL845      0.0521
   5068 H          19.8107   26.6370   -0.8836 H     845  UNL845      0.0521
   5069 H          20.7033   27.8103    0.1192 H     845  UNL845      0.0521
   5070 H          21.8348   25.9513   -1.7101 H     845  UNL845      0.2090
   5071 O          21.2516   26.8317    2.1523 O.3   846  UNL846     -0.3982
   5072 C          19.8358   26.8317    2.1523 C.3   846  UNL846      0.0330
   5073 H          19.4705   26.0627    2.8375 H     846  UNL846      0.0521
   5074 H          19.4706   26.6370    1.1410 H     846  UNL846      0.0521
   5075 H          19.4805   27.8103    2.4835 H     846  UNL846      0.0521
   5076 H          21.5373   25.9513    1.8543 H     846  UNL846      0.2090
   5077 O          22.4516   26.8317    4.8799 O.3   847  UNL847     -0.3982
   5078 C          21.0358   26.8317    4.8799 C.3   847  UNL847      0.0330
   5079 H          20.6705   26.0627    5.5651 H     847  UNL847      0.0521
   5080 H          20.6706   26.6370    3.8686 H     847  UNL847      0.0521
   5081 H          20.6805   27.8103    5.2111 H     847  UNL847      0.0521
   5082 H          22.7373   25.9513    4.5819 H     847  UNL847      0.2090
   5083 O          21.0121   27.2024    8.4870 O.3   848  UNL848     -0.3982
   5084 C          20.5325   26.6345    7.2820 C.3   848  UNL848      0.0330
   5085 H          20.4462   25.5512    7.3977 H     848  UNL848      0.0521
   5086 H          21.2213   26.8709    6.4673 H     848  UNL848      0.0521
   5087 H          19.5491   27.0544    7.0581 H     848  UNL848      0.0521
   5088 H          21.8854   26.8111    8.6595 H     848  UNL848      0.2090
   5089 O          21.4516   26.8317   10.3350 O.3   849  UNL849     -0.3982
   5090 C          20.0358   26.8317   10.3350 C.3   849  UNL849      0.0330
   5091 H          19.6705   26.0627   11.0202 H     849  UNL849      0.0521
   5092 H          19.6706   26.6370    9.3237 H     849  UNL849      0.0521
   5093 H          19.6805   27.8103   10.6662 H     849  UNL849      0.0521
   5094 H          21.7373   25.9513   10.0370 H     849  UNL849      0.2090
   5095 O          21.6516   26.8004   12.9116 O.3   850  UNL850     -0.3982
   5096 C          20.2358   26.8004   12.9116 C.3   850  UNL850      0.0330
   5097 H          19.8705   27.0230   13.9173 H     850  UNL850      0.0521
   5098 H          19.8706   25.8228   12.5879 H     850  UNL850      0.0521
   5099 H          19.8805   27.5672   12.2192 H     850  UNL850      0.0521
   5100 H          21.9373   26.1106   13.5345 H     850  UNL850      0.2090
   5101 O          21.4491   26.6317   16.5825 O.3   851  UNL851     -0.3982
   5102 C          20.5142   26.6317   15.5192 C.3   851  UNL851      0.0330
   5103 H          19.7584   25.8627   15.6973 H     851  UNL851      0.0521
   5104 H          21.0325   26.4370   14.5772 H     851  UNL851      0.0521
   5105 H          20.0309   27.6103   15.4711 H     851  UNL851      0.0521
   5106 H          21.8615   25.7513   16.6003 H     851  UNL851      0.2090
   5107 O          22.4516   26.7637   18.6006 O.3   852  UNL852     -0.3982
   5108 C          21.0358   26.7637   18.6006 C.3   852  UNL852      0.0330
   5109 H          20.6705   25.7337   18.6087 H     852  UNL852      0.0521
   5110 H          20.6706   27.2841   17.7119 H     852  UNL852      0.0521
   5111 H          20.6805   27.2810   19.4949 H     852  UNL852      0.0521
   5112 H          22.7373   26.2983   17.7961 H     852  UNL852      0.2090
   5113 O          22.4516   26.8317   22.2452 O.3   853  UNL853     -0.3982
   5114 C          21.0358   26.8317   22.2452 C.3   853  UNL853      0.0330
   5115 H          20.6705   26.0627   22.9304 H     853  UNL853      0.0521
   5116 H          20.6706   26.6370   21.2339 H     853  UNL853      0.0521
   5117 H          20.6805   27.8103   22.5764 H     853  UNL853      0.0521
   5118 H          22.7373   25.9513   21.9472 H     853  UNL853      0.2090
   5119 O          21.5480   30.2412   -1.1565 O.3   854  UNL854     -0.3982
   5120 C          22.4355   29.4715   -0.3664 C.3   854  UNL854      0.0330
   5121 H          23.1373   28.9422   -1.0157 H     854  UNL854      0.0521
   5122 H          21.8654   28.7563    0.2316 H     854  UNL854      0.0521
   5123 H          22.9895   30.1387    0.2980 H     854  UNL854      0.0521
   5124 H          21.0708   29.6224   -1.7353 H     854  UNL854      0.2090
   5125 O          22.2552   30.3309    2.8340 O.3   855  UNL855     -0.3982
   5126 C          22.0499   29.4174    1.7719 C.3   855  UNL855      0.0330
   5127 H          21.4818   28.5572    2.1346 H     855  UNL855      0.0521
   5128 H          23.0160   29.0904    1.3797 H     855  UNL855      0.0521
   5129 H          21.4868   29.9152    0.9790 H     855  UNL855      0.0521
   5130 H          22.7569   29.8612    3.5219 H     855  UNL855      0.2090
   5131 O          23.0670   30.1447    4.9174 O.3   856  UNL856     -0.3982
   5132 C          22.0026   29.2111    4.9174 C.3   856  UNL856      0.0330
   5133 H          21.7865   28.9036    3.8913 H     856  UNL856      0.0521
   5134 H          21.1170   29.6671    5.3666 H     856  UNL856      0.0521
   5135 H          22.2966   28.3371    5.5032 H     856  UNL856      0.0521
   5136 H          22.7769   30.9087    4.3904 H     856  UNL856      0.2090
   5137 O          21.6483   28.9421    6.8085 O.3   857  UNL857     -0.3982
   5138 C          22.4206   29.7968    7.6316 C.3   857  UNL857      0.0330
   5139 H          23.0720   29.1968    8.2718 H     857  UNL857      0.0521
   5140 H          21.7568   30.4122    8.2436 H     857  UNL857      0.0521
   5141 H          23.0319   30.4435    6.9977 H     857  UNL857      0.0521
   5142 H          21.1169   28.3808    7.3985 H     857  UNL857      0.2090
   5143 O          23.1904   29.9027   10.1793 O.3   858  UNL858     -0.3982
   5144 C          21.8140   29.5727   10.2089 C.3   858  UNL858      0.0330
   5145 H          21.4629   29.5628   11.2438 H     858  UNL858      0.0521
   5146 H          21.6638   28.5912    9.7526 H     858  UNL858      0.0521
   5147 H          21.2563   30.3236    9.6445 H     858  UNL858      0.0521
   5148 H          23.6592   29.2192   10.6878 H     858  UNL858      0.2090
   5149 O          21.8972   30.5791   12.9544 O.3   859  UNL859     -0.3982
   5150 C          22.0871   29.1762   12.9369 C.3   859  UNL859      0.0330
   5151 H          22.1576   28.8042   13.9621 H     859  UNL859      0.0521
   5152 H          23.0014   28.9382   12.3879 H     859  UNL859      0.0521
   5153 H          21.2341   28.7084   12.4397 H     859  UNL859      0.0521
   5154 H          22.6692   30.9662   13.4013 H     859  UNL859      0.2090
   5155 O          23.2516   29.4033   15.8276 O.3   860  UNL860     -0.3982
   5156 C          21.8358   29.4033   15.8276 C.3   860  UNL860      0.0330
   5157 H          21.4705   29.3145   14.8015 H     860  UNL860      0.0521
   5158 H          21.4706   30.3300   16.2768 H     860  UNL860      0.0521
   5159 H          21.4805   28.5523   16.4134 H     860  UNL860      0.0521
   5160 H          23.5373   30.1689   15.3006 H     860  UNL860      0.2090
   5161 O          23.1843   29.2656   18.7762 O.3   861  UNL861     -0.3982
   5162 C          21.8683   29.7283   18.5343 C.3   861  UNL861      0.0330
   5163 H          21.1737   28.8851   18.5624 H     861  UNL861      0.0521
   5164 H          21.8265   30.2162   17.5575 H     861  UNL861      0.0521
   5165 H          21.5964   30.4476   19.3103 H     861  UNL861      0.0521
   5166 H          23.3974   28.6295   18.0722 H     861  UNL861      0.2090
   5167 O          21.8026   28.5733   21.0322 O.3   862  UNL862     -0.3982
   5168 C          22.3478   29.7159   21.6660 C.3   862  UNL862      0.0330
   5169 H          21.5580   30.4522   21.8341 H     862  UNL862      0.0521
   5170 H          23.1316   30.1439   21.0362 H     862  UNL862      0.0521
   5171 H          22.7765   29.4191   22.6260 H     862  UNL862      0.0521
   5172 H          21.4300   28.8678   20.1836 H     862  UNL862      0.2090
   5173 O          23.2516   32.2697   -0.5094 O.3   863  UNL863     -0.3982
   5174 C          21.8358   32.2697   -0.5094 C.3   863  UNL863      0.0330
   5175 H          21.4705   31.9307   -1.4820 H     863  UNL863      0.0521
   5176 H          21.4706   33.2786   -0.3026 H     863  UNL863      0.0521
   5177 H          21.4805   31.5895    0.2682 H     863  UNL863      0.0521
   5178 H          23.5373   32.8818   -1.2090 H     863  UNL863      0.2090
   5179 O          22.8892   32.2190    2.9222 O.3   864  UNL864     -0.3982
   5180 C          21.8248   32.2190    1.9886 C.3   864  UNL864      0.0330
   5181 H          21.6778   31.2074    1.6023 H     864  UNL864      0.0521
   5182 H          22.0578   32.9032    1.1691 H     864  UNL864      0.0521
   5183 H          20.9127   32.5515    2.4898 H     864  UNL864      0.0521
   5184 H          23.6843   31.9199    2.4490 H     864  UNL864      0.2090
   5185 O          23.2516   32.2622    4.9386 O.3   865  UNL865     -0.3982
   5186 C          21.8358   32.2622    4.9386 C.3   865  UNL865      0.0330
   5187 H          21.4705   31.9897    3.9453 H     865  UNL865      0.0521
   5188 H          21.4706   33.2548    5.2132 H     865  UNL865      0.0521
   5189 H          21.4805   31.5309    5.6684 H     865  UNL865      0.0521
   5190 H          23.5373   32.9202    4.2821 H     865  UNL865      0.2090
   5191 O          22.2516   32.2623    7.4510 O.3   866  UNL866     -0.3982
   5192 C          20.8358   32.2623    7.4510 C.3   866  UNL866      0.0330
   5193 H          20.4705   33.2551    7.1768 H     866  UNL866      0.0521
   5194 H          20.4706   31.9893    8.4440 H     866  UNL866      0.0521
   5195 H          20.4805   31.5313    6.7209 H     866  UNL866      0.0521
   5196 H          22.5373   32.9199    8.1078 H     866  UNL866      0.2090
   5197 O          23.2516   32.4910   10.3787 O.3   867  UNL867     -0.3982
   5198 C          21.8358   32.4910   10.3787 C.3   867  UNL867      0.0330
   5199 H          21.4705   31.5427   10.7808 H     867  UNL867      0.0521
   5200 H          21.4706   32.6312    9.3584 H     867  UNL867      0.0521
   5201 H          21.4805   33.3114   11.0065 H     867  UNL867      0.0521
   5202 H          23.5373   31.7528    9.8138 H     867  UNL867      0.2090
   5203 O          23.2516   32.5143   13.0625 O.3   868  UNL868     -0.3982
   5204 C          21.8358   32.5143   13.0625 C.3   868  UNL868      0.0330
   5205 H          21.4705   31.7453   13.7477 H     868  UNL868      0.0521
   5206 H          21.4706   32.3196   12.0512 H     868  UNL868      0.0521
   5207 H          21.4805   33.4929   13.3937 H     868  UNL868      0.0521
   5208 H          23.5373   31.6339   12.7645 H     868  UNL868      0.2090
   5209 O          23.2516   32.5106   15.6828 O.3   869  UNL869     -0.3982
   5210 C          21.8358   32.5106   15.6828 C.3   869  UNL869      0.0330
   5211 H          21.4705   32.3843   16.7050 H     869  UNL869      0.0521
   5212 H          21.4706   31.6974   15.0509 H     869  UNL869      0.0521
   5213 H          21.4805   33.4648   15.2866 H     869  UNL869      0.0521
   5214 H          23.5373   31.6523   16.0393 H     869  UNL869      0.2090
   5215 O          23.2516   32.4965   18.3840 O.3   870  UNL870     -0.3982
   5216 C          21.8358   32.4965   18.3840 C.3   870  UNL870      0.0330
   5217 H          21.4705   32.5725   19.4112 H     870  UNL870      0.0521
   5218 H          21.4706   31.5754   17.9233 H     870  UNL870      0.0521
   5219 H          21.4805   33.3547   17.8088 H     870  UNL870      0.0521
   5220 H          23.5373   31.7244   18.9015 H     870  UNL870      0.2090
   5221 O          23.2516   32.5143   22.2452 O.3   871  UNL871     -0.3982
   5222 C          21.8358   32.5143   22.2452 C.3   871  UNL871      0.0330
   5223 H          21.4705   31.7453   22.9304 H     871  UNL871      0.0521
   5224 H          21.4706   32.3196   21.2339 H     871  UNL871      0.0521
   5225 H          21.4805   33.4929   22.5764 H     871  UNL871      0.0521
   5226 H          23.5373   31.6339   21.9472 H     871  UNL871      0.2090
   5227 O          22.4414   35.1883   -0.9881 O.3   872  UNL872     -0.3982
   5228 C          22.3823   36.5739   -0.7033 C.3   872  UNL872      0.0330
   5229 H          23.1788   36.8372   -0.0029 H     872  UNL872      0.0521
   5230 H          21.4082   36.8169   -0.2721 H     872  UNL872      0.0521
   5231 H          22.5171   37.1335   -1.6319 H     872  UNL872      0.0521
   5232 H          22.3188   34.7181   -0.1459 H     872  UNL872      0.2090
   5233 O          23.2516   35.3471    2.1725 O.3   873  UNL873     -0.3982
   5234 C          21.8358   35.3471    2.1725 C.3   873  UNL873      0.0330
   5235 H          21.4705   34.4877    2.7403 H     873  UNL873      0.0521
   5236 H          21.4706   35.2995    1.1437 H     873  UNL873      0.0521
   5237 H          21.4805   36.2680    2.6407 H     873  UNL873      0.0521
   5238 H          23.5373   34.5185    1.7513 H     873  UNL873      0.2090
   5239 O          21.5035   37.4117    5.1356 O.3   874  UNL874     -0.3982
   5240 C          22.4136   36.4811    4.5787 C.3   874  UNL874      0.0330
   5241 H          21.9023   35.5318    4.4007 H     874  UNL874      0.0521
   5242 H          23.2507   36.3332    5.2654 H     874  UNL874      0.0521
   5243 H          22.7880   36.8742    3.6306 H     874  UNL874      0.0521
   5244 H          21.1885   37.0358    5.9753 H     874  UNL874      0.2090
   5245 O          22.0161   36.2687    7.3573 O.3   875  UNL875     -0.3982
   5246 C          22.0277   34.8855    7.6593 C.3   875  UNL875      0.0330
   5247 H          22.6998   34.7009    8.5009 H     875  UNL875      0.0521
   5248 H          22.3604   34.3232    6.7834 H     875  UNL875      0.0521
   5249 H          21.0162   34.5721    7.9280 H     875  UNL875      0.0521
   5250 H          22.9264   36.5175    7.1227 H     875  UNL875      0.2090
   5251 O          23.2516   35.1739   10.4338 O.3   876  UNL876     -0.3982
   5252 C          21.8358   35.1739   10.4338 C.3   876  UNL876      0.0330
   5253 H          21.4705   34.4309    9.7205 H     876  UNL876      0.0521
   5254 H          21.4706   36.1669   10.1609 H     876  UNL876      0.0521
   5255 H          21.4805   34.9199   11.4352 H     876  UNL876      0.0521
   5256 H          23.5373   35.4024    9.5328 H     876  UNL876      0.2090
   5257 O          21.7652   37.4074   12.2008 O.3   877  UNL877     -0.3982
   5258 C          22.4325   36.7763   13.2783 C.3   877  UNL877      0.0330
   5259 H          22.8124   35.8044   12.9537 H     877  UNL877      0.0521
   5260 H          21.7388   36.6482   14.1128 H     877  UNL877      0.0521
   5261 H          23.2684   37.4043   13.5953 H     877  UNL877      0.0521
   5262 H          21.0292   36.8273   11.9414 H     877  UNL877      0.2090
   5263 O          21.2560   35.1036   16.3144 O.3   878  UNL878     -0.3982
   5264 C          22.5257   35.1036   15.6879 C.3   878  UNL878      0.0330
   5265 H          22.9746   36.0964   15.7721 H     878  UNL878      0.0521
   5266 H          22.4137   34.8306   14.6358 H     878  UNL878      0.0521
   5267 H          23.1674   34.3726   16.1854 H     878  UNL878      0.0521
   5268 H          20.7092   35.7612   15.8519 H     878  UNL878      0.2090
   5269 O          21.9351   35.2224   18.5813 O.3   879  UNL879     -0.3982
   5270 C          22.3240   36.5697   18.3859 C.3   879  UNL879      0.0330
   5271 H          23.0764   36.6217   17.5951 H     879  UNL879      0.0521
   5272 H          22.7305   36.9712   19.3173 H     879  UNL879      0.0521
   5273 H          21.4484   37.1531   18.0917 H     879  UNL879      0.0521
   5274 H          22.7322   34.7299   18.8414 H     879  UNL879      0.2090
   5275 O          23.1101   34.7255   21.4649 O.3   880  UNL880     -0.3982
   5276 C          21.8352   35.3192   21.3017 C.3   880  UNL880      0.0330
   5277 H          21.2881   34.7984   20.5119 H     880  UNL880      0.0521
   5278 H          21.9540   36.3741   21.0427 H     880  UNL880      0.0521
   5279 H          21.2821   35.2368   22.2403 H     880  UNL880      0.0521
   5280 H          23.5771   34.8139   20.6166 H     880  UNL880      0.2090
   5281 O          25.7625    1.2600    0.3526 O.3   881  UNL881     -0.3982
   5282 C          26.3039    1.2600   -0.9556 C.3   881  UNL881      0.0330
   5283 H          25.8104    0.4910   -1.5551 H     881  UNL881      0.0521
   5284 H          27.3779    1.0653   -0.9063 H     881  UNL881      0.0521
   5285 H          26.1337    2.2386   -1.4105 H     881  UNL881      0.0521
   5286 H          25.9286    0.3796    0.7306 H     881  UNL881      0.2090
   5287 O          25.6081    1.5164    2.0944 O.3   882  UNL882     -0.3982
   5288 C          26.9583    1.1151    1.9517 C.3   882  UNL882      0.0330
   5289 H          27.0008    0.0425    1.7467 H     882  UNL882      0.0521
   5290 H          27.5061    1.3435    2.8692 H     882  UNL882      0.0521
   5291 H          27.4050    1.6613    1.1176 H     882  UNL882      0.0521
   5292 H          25.2386    1.0155    2.8414 H     882  UNL882      0.2090
   5293 O          25.3472    1.7658    4.8392 O.3   883  UNL883     -0.3982
   5294 C          26.4090    0.8468    4.6590 C.3   883  UNL883      0.0330
   5295 H          26.4427    0.1568    5.5058 H     883  UNL883      0.0521
   5296 H          27.3535    1.3908    4.5808 H     883  UNL883      0.0521
   5297 H          26.2386    0.2830    3.7389 H     883  UNL883      0.0521
   5298 H          25.5260    2.2510    5.6627 H     883  UNL883      0.2090
   5299 O          27.2967    1.0501    7.6961 O.3   884  UNL884     -0.3982
   5300 C          25.8809    1.0501    7.6961 C.3   884  UNL884      0.0330
   5301 H          25.5156    0.4609    6.8512 H     884  UNL884      0.0521
   5302 H          25.5157    2.0774    7.6226 H     884  UNL884      0.0521
   5303 H          25.5256    0.6053    8.6285 H     884  UNL884      0.0521
   5304 H          27.5824    1.4504    6.8572 H     884  UNL884      0.2090
   5305 O          24.6967    1.2037   10.1619 O.3   885  UNL885     -0.3982
   5306 C          23.2809    1.2037   10.1619 C.3   885  UNL885      0.0330
   5307 H          22.9156    1.6407   11.0945 H     885  UNL885      0.0521
   5308 H          22.9157    0.1789   10.0596 H     885  UNL885      0.0521
   5309 H          22.9256    1.8006    9.3186 H     885  UNL885      0.0521
   5310 H          24.9824    0.6666   10.9205 H     885  UNL885      0.2090
   5311 O          27.6812    0.6174   13.4526 O.3   886  UNL886     -0.3982
   5312 C          26.5609    1.1193   12.7473 C.3   886  UNL886      0.0330
   5313 H          26.7854    2.1199   12.3695 H     886  UNL886      0.0521
   5314 H          25.6959    1.1556   13.4140 H     886  UNL886      0.0521
   5315 H          26.3432    0.4554   11.9074 H     886  UNL886      0.0521
   5316 H          27.8502    1.2267   14.1913 H     886  UNL886      0.2090
   5317 O          26.4967    0.9792   15.8087 O.3   887  UNL887     -0.3982
   5318 C          25.0809    0.9792   15.8087 C.3   887  UNL887      0.0330
   5319 H          24.7156    1.0386   14.7805 H     887  UNL887      0.0521
   5320 H          24.7157    1.8318   16.3863 H     887  UNL887      0.0521
   5321 H          24.7256    0.0529   16.2663 H     887  UNL887      0.0521
   5322 H          26.7824    1.8125   15.3970 H     887  UNL887      0.2090
   5323 O          27.2967    1.1647   18.6130 O.3   888  UNL888     -0.3982
   5324 C          25.8809    1.1647   18.6130 C.3   888  UNL888      0.0330
   5325 H          25.5156    0.1531   18.4195 H     888  UNL888      0.0521
   5326 H          25.5157    1.8489   17.8432 H     888  UNL888      0.0521
   5327 H          25.5256    1.4972   19.5912 H     888  UNL888      0.0521
   5328 H          27.5824    0.8656   17.7330 H     888  UNL888      0.2090
   5329 O          27.0495    0.1946   20.8089 O.3   889  UNL889     -0.3982
   5330 C          26.3163    1.2968   21.3108 C.3   889  UNL889      0.0330
   5331 H          26.4077    2.1404   20.6222 H     889  UNL889      0.0521
   5332 H          26.7007    1.5732   22.2956 H     889  UNL889      0.0521
   5333 H          25.2648    1.0136   21.3989 H     889  UNL889      0.0521
   5334 H          27.9779    0.4758   20.7417 H     889  UNL889      0.2090
   5335 O          25.7173    3.3510   -0.5752 O.3   890  UNL890     -0.3982
   5336 C          26.9869    3.9775   -0.5752 C.3   890  UNL890      0.0330
   5337 H          26.9742    4.8287    0.1100 H     890  UNL890      0.0521
   5338 H          27.2283    4.3137   -1.5865 H     890  UNL890      0.0521
   5339 H          27.7386    3.2571   -0.2440 H     890  UNL890      0.0521
   5340 H          25.0715    4.0140   -0.8732 H     890  UNL890      0.2090
   5341 O          25.6059    3.8493    1.7233 O.3   891  UNL891     -0.3982
   5342 C          26.8755    3.8493    2.3498 C.3   891  UNL891      0.0330
   5343 H          27.0818    4.8421    2.7573 H     891  UNL891      0.0521
   5344 H          27.6424    3.5763    1.6209 H     891  UNL891      0.0521
   5345 H          26.8710    3.1183    3.1618 H     891  UNL891      0.0521
   5346 H          25.6403    4.5069    1.0079 H     891  UNL891      0.2090
   5347 O          26.4967    4.1063    4.8012 O.3   892  UNL892     -0.3982
   5348 C          25.0809    4.1063    4.8012 C.3   892  UNL892      0.0330
   5349 H          24.7156    3.7830    5.7791 H     892  UNL892      0.0521
   5350 H          24.7157    3.4320    4.0228 H     892  UNL892      0.0521
   5351 H          24.7256    5.1194    4.5987 H     892  UNL892      0.0521
   5352 H          26.7824    3.1949    4.9834 H     892  UNL892      0.2090
   5353 O          27.2492    3.0691    7.0997 O.3   893  UNL893     -0.3982
   5354 C          26.6369    4.2770    7.5128 C.3   893  UNL893      0.0330
   5355 H          27.3787    4.9144    8.0003 H     893  UNL893      0.0521
   5356 H          25.8208    4.0548    8.2045 H     893  UNL893      0.0521
   5357 H          26.2380    4.7914    6.6353 H     893  UNL893      0.0521
   5358 H          27.5933    2.6353    7.8990 H     893  UNL893      0.2090
   5359 O          27.0896    5.0328   10.1403 O.3   894  UNL894     -0.3982
   5360 C          26.8259    3.6705   10.4212 C.3   894  UNL894      0.0330
   5361 H          27.6238    3.2658   11.0488 H     894  UNL894      0.0521
   5362 H          26.7641    3.1099    9.4853 H     894  UNL894      0.0521
   5363 H          25.8740    3.5950   10.9520 H     894  UNL894      0.0521
   5364 H          27.9396    5.0681    9.6694 H     894  UNL894      0.2090
   5365 O          26.6967    3.8099   12.9743 O.3   895  UNL895     -0.3982
   5366 C          25.2809    3.8099   12.9743 C.3   895  UNL895      0.0330
   5367 H          24.9156    4.5333   12.2410 H     895  UNL895      0.0521
   5368 H          24.9157    4.0692   13.9710 H     895  UNL895      0.0521
   5369 H          24.9256    2.8121   12.7067 H     895  UNL895      0.0521
   5370 H          26.9824    4.7077   13.2150 H     895  UNL895      0.2090
   5371 O          25.7641    3.3554   16.0412 O.3   896  UNL896     -0.3982
   5372 C          26.7486    4.2405   15.5392 C.3   896  UNL896      0.0330
   5373 H          27.5096    3.6719   14.9989 H     896  UNL896      0.0521
   5374 H          27.2061    4.7859   16.3682 H     896  UNL896      0.0521
   5375 H          26.2741    4.9498   14.8571 H     896  UNL896      0.0521
   5376 H          26.2146    2.7385   16.6429 H     896  UNL896      0.2090
   5377 O          25.6059    3.8493   18.0886 O.3   897  UNL897     -0.3982
   5378 C          26.8755    3.8493   18.7151 C.3   897  UNL897      0.0330
   5379 H          27.0818    4.8421   19.1226 H     897  UNL897      0.0521
   5380 H          27.6424    3.5763   17.9862 H     897  UNL897      0.0521
   5381 H          26.8710    3.1183   19.5271 H     897  UNL897      0.0521
   5382 H          25.6403    4.5069   17.3732 H     897  UNL897      0.2090
   5383 O          25.4058    3.5769   21.8887 O.3   898  UNL898     -0.3982
   5384 C          26.6754    4.2035   21.8887 C.3   898  UNL898      0.0330
   5385 H          27.4424    3.4748   21.6146 H     898  UNL898      0.0521
   5386 H          26.8822    4.6098   22.8818 H     898  UNL898      0.0521
   5387 H          26.6706    5.0162   21.1587 H     898  UNL898      0.0521
   5388 H          25.4406    2.8608   22.5456 H     898  UNL898      0.2090
   5389 O          25.9173    6.1923   -0.5752 O.3   899  UNL899     -0.3982
   5390 C          27.1869    6.8188   -0.5752 C.3   899  UNL899      0.0330
   5391 H          27.1742    7.6700    0.1100 H     899  UNL899      0.0521
   5392 H          27.4283    7.1550   -1.5865 H     899  UNL899      0.0521
   5393 H          27.9386    6.0984   -0.2440 H     899  UNL899      0.0521
   5394 H          25.2715    6.8553   -0.8732 H     899  UNL899      0.2090
   5395 O          27.0615    6.9426    1.4299 O.3   900  UNL900     -0.3982
   5396 C          25.9971    6.9426    2.3635 C.3   900  UNL900      0.0330
   5397 H          26.1743    6.1736    3.1195 H     900  UNL900      0.0521
   5398 H          25.0557    6.7479    1.8440 H     900  UNL900      0.0521
   5399 H          25.9484    7.9212    2.8467 H     900  UNL900      0.0521
   5400 H          27.0798    6.0622    1.0175 H     900  UNL900      0.2090
   5401 O          26.1498    6.9923    4.7890 O.3   901  UNL901     -0.3982
   5402 C          27.5610    6.8979    4.7249 C.3   901  UNL901      0.0330
   5403 H          27.8435    5.9342    4.2941 H     901  UNL901      0.0521
   5404 H          27.9796    6.9968    5.7294 H     901  UNL901      0.0521
   5405 H          27.9426    7.7031    4.0927 H     901  UNL901      0.0521
   5406 H          25.8404    6.2656    5.3562 H     901  UNL901      0.2090
   5407 O          25.7864    7.3857    7.1784 O.3   902  UNL902     -0.3982
   5408 C          26.7409    6.5485    7.8049 C.3   902  UNL902      0.0330
   5409 H          27.5506    7.1589    8.2124 H     902  UNL902      0.0521
   5410 H          27.1375    5.8376    7.0760 H     902  UNL902      0.0521
   5411 H          26.2555    6.0018    8.6168 H     902  UNL902      0.0521
   5412 H          26.2459    7.8574    6.4630 H     902  UNL902      0.2090
   5413 O          25.0967    6.6906   10.1785 O.3   903  UNL903     -0.3982
   5414 C          23.6809    6.6906   10.1785 C.3   903  UNL903      0.0330
   5415 H          23.3156    7.6834    9.9044 H     903  UNL903      0.0521
   5416 H          23.3157    6.4176   11.1716 H     903  UNL903      0.0521
   5417 H          23.3256    5.9596    9.4485 H     903  UNL903      0.0521
   5418 H          25.3824    7.3482   10.8354 H     903  UNL903      0.2090
   5419 O          25.0482    6.7631   13.7802 O.3   904  UNL904     -0.3982
   5420 C          25.9988    6.9987   12.7578 C.3   904  UNL904      0.0330
   5421 H          25.8037    6.3294   11.9163 H     904  UNL904      0.0521
   5422 H          27.0050    6.8271   13.1480 H     904  UNL904      0.0521
   5423 H          25.9119    8.0353   12.4238 H     904  UNL904      0.0521
   5424 H          25.1493    5.8362   14.0562 H     904  UNL904      0.2090
   5425 O          25.9173    6.1923   15.7901 O.3   905  UNL905     -0.3982
   5426 C          27.1869    6.8188   15.7901 C.3   905  UNL905      0.0330
   5427 H          27.1742    7.6700   16.4753 H     905  UNL905      0.0521
   5428 H          27.4283    7.1550   14.7788 H     905  UNL905      0.0521
   5429 H          27.9386    6.0984   16.1213 H     905  UNL905      0.0521
   5430 H          25.2715    6.8553   15.4921 H     905  UNL905      0.2090
   5431 O          27.4967    6.8746   18.6006 O.3   906  UNL906     -0.3982
   5432 C          26.0809    6.8746   18.6006 C.3   906  UNL906      0.0330
   5433 H          25.7156    5.8446   18.6087 H     906  UNL906      0.0521
   5434 H          25.7157    7.3950   17.7119 H     906  UNL906      0.0521
   5435 H          25.7256    7.3919   19.4949 H     906  UNL906      0.0521
   5436 H          27.7824    6.4092   17.7961 H     906  UNL906      0.2090
   5437 O          27.4967    6.9426   22.2452 O.3   907  UNL907     -0.3982
   5438 C          26.0809    6.9426   22.2452 C.3   907  UNL907      0.0330
   5439 H          25.7156    6.1736   22.9304 H     907  UNL907      0.0521
   5440 H          25.7157    6.7479   21.2339 H     907  UNL907      0.0521
   5441 H          25.7256    7.9212   22.5764 H     907  UNL907      0.0521
   5442 H          27.7824    6.0622   21.9472 H     907  UNL907      0.2090
   5443 O          27.6967    9.5319   -0.7317 O.3   908  UNL908     -0.3982
   5444 C          26.2809    9.5319   -0.7317 C.3   908  UNL908      0.0330
   5445 H          25.9156   10.5247   -1.0058 H     908  UNL908      0.0521
   5446 H          25.9157    9.2589    0.2614 H     908  UNL908      0.0521
   5447 H          25.9256    8.8009   -1.4617 H     908  UNL908      0.0521
   5448 H          27.9824   10.1895   -0.0748 H     908  UNL908      0.2090
   5449 O          24.1759   10.6365    2.5370 O.3   909  UNL909     -0.3982
   5450 C          24.1926    9.2731    2.1559 C.3   909  UNL909      0.0330
   5451 H          25.1769    9.0177    1.7555 H     909  UNL909      0.0521
   5452 H          23.4230    9.0955    1.4008 H     909  UNL909      0.0521
   5453 H          23.9876    8.6562    3.0340 H     909  UNL909      0.0521
   5454 H          24.3608   11.1588    1.7379 H     909  UNL909      0.2090
   5455 O          27.0413    9.0732    5.2640 O.3   910  UNL910     -0.3982
   5456 C          25.9027    9.6351    4.6375 C.3   910  UNL910      0.0330
   5457 H          26.2212   10.3354    3.8613 H     910  UNL910      0.0521
   5458 H          25.2939   10.1526    5.3827 H     910  UNL910      0.0521
   5459 H          25.3154    8.8336    4.1832 H     910  UNL910      0.0521
   5460 H          27.5424    9.8077    5.6576 H     910  UNL910      0.2090
   5461 O          27.6967    9.5839    7.6074 O.3   911  UNL911     -0.3982
   5462 C          26.2809    9.5839    7.6074 C.3   911  UNL911      0.0330
   5463 H          25.9156    8.8149    8.2926 H     911  UNL911      0.0521
   5464 H          25.9157    9.3892    6.5961 H     911  UNL911      0.0521
   5465 H          25.9256   10.5625    7.9386 H     911  UNL911      0.0521
   5466 H          27.9824    8.7035    7.3094 H     911  UNL911      0.2090
   5467 O          27.1471    8.5609   10.2250 O.3   912  UNL912     -0.3982
   5468 C          26.8095    9.9358   10.2087 C.3   912  UNL912      0.0330
   5469 H          27.5766   10.4939    9.6661 H     912  UNL912      0.0521
   5470 H          26.7319   10.3050   11.2342 H     912  UNL912      0.0521
   5471 H          25.8476   10.0595    9.7056 H     912  UNL912      0.0521
   5472 H          28.0043    8.4826   10.6773 H     912  UNL912      0.2090
   5473 O          26.8967    9.7839   13.0625 O.3   913  UNL913     -0.3982
   5474 C          25.4809    9.7839   13.0625 C.3   913  UNL913      0.0330
   5475 H          25.1156    9.0149   13.7477 H     913  UNL913      0.0521
   5476 H          25.1157    9.5892   12.0512 H     913  UNL913      0.0521
   5477 H          25.1256   10.7625   13.3937 H     913  UNL913      0.0521
   5478 H          27.1824    8.9035   12.7645 H     913  UNL913      0.2090
   5479 O          25.6058    9.2595   15.6336 O.3   914  UNL914     -0.3982
   5480 C          26.8754    9.8861   15.6336 C.3   914  UNL914      0.0330
   5481 H          27.6424    9.1574   15.3595 H     914  UNL914      0.0521
   5482 H          27.0822   10.2924   16.6267 H     914  UNL914      0.0521
   5483 H          26.8706   10.6988   14.9036 H     914  UNL914      0.0521
   5484 H          25.6406    8.5434   16.2905 H     914  UNL914      0.2090
   5485 O          23.9164    9.8534   19.4916 O.3   915  UNL915     -0.3982
   5486 C          24.2631    9.7641   18.1218 C.3   915  UNL915      0.0330
   5487 H          23.6470    9.0021   17.6379 H     915  UNL915      0.0521
   5488 H          25.3207    9.5058   18.0288 H     915  UNL915      0.0521
   5489 H          24.0833   10.7310   17.6460 H     915  UNL915      0.0521
   5490 H          24.0865    8.9813   19.8867 H     915  UNL915      0.2090
   5491 O          25.5012   10.2129   21.0887 O.3   916  UNL916     -0.3982
   5492 C          26.7708    9.5864   21.0887 C.3   916  UNL916      0.0330
   5493 H          26.6590    8.5344   20.8146 H     916  UNL916      0.0521
   5494 H          27.2191    9.6695   22.0818 H     916  UNL916      0.0521
   5495 H          27.4129   10.0847   20.3587 H     916  UNL916      0.0521
   5496 H          24.9539    9.7496   21.7456 H     916  UNL916      0.2090
   5497 O          27.2967   12.6252   -0.5752 O.3   917  UNL917     -0.3982
   5498 C          25.8809   12.6252   -0.5752 C.3   917  UNL917      0.0330
   5499 H          25.5156   11.8562    0.1100 H     917  UNL917      0.0521
   5500 H          25.5157   12.4305   -1.5865 H     917  UNL917      0.0521
   5501 H          25.5256   13.6038   -0.2440 H     917  UNL917      0.0521
   5502 H          27.5824   11.7448   -0.8732 H     917  UNL917      0.2090
   5503 O          25.5642   12.7413    2.1510 O.3   918  UNL918     -0.3982
   5504 C          26.9494   12.5358    1.9424 C.3   918  UNL918      0.0330
   5505 H          27.1262   11.4942    1.6627 H     918  UNL918      0.0521
   5506 H          27.4962   12.7763    2.8574 H     918  UNL918      0.0521
   5507 H          27.2881   13.1899    1.1355 H     918  UNL918      0.0521
   5508 H          25.2928   12.1479    2.8720 H     918  UNL918      0.2090
   5509 O          27.4967   12.1692    5.5345 O.3   919  UNL919     -0.3982
   5510 C          26.0809   12.1692    5.5345 C.3   919  UNL919      0.0330
   5511 H          25.7156   11.9341    4.5317 H     919  UNL919      0.0521
   5512 H          25.7157   13.1508    5.8461 H     919  UNL919      0.0521
   5513 H          25.7256   11.4110    6.2364 H     919  UNL919      0.0521
   5514 H          27.7824   12.8512    4.9031 H     919  UNL919      0.2090
   5515 O          26.4967   12.3444    7.6261 O.3   920  UNL920     -0.3982
   5516 C          25.0809   12.3444    7.6261 C.3   920  UNL920      0.0330
   5517 H          24.7156   12.4038    6.5978 H     920  UNL920      0.0521
   5518 H          24.7157   13.1970    8.2036 H     920  UNL920      0.0521
   5519 H          24.7256   11.4181    8.0837 H     920  UNL920      0.0521
   5520 H          26.7824   13.1777    7.2144 H     920  UNL920      0.2090
   5521 O          25.9173   11.8749   10.3350 O.3   921  UNL921     -0.3982
   5522 C          27.1869   12.5014   10.3350 C.3   921  UNL921      0.0330
   5523 H          27.1742   13.3526   11.0202 H     921  UNL921      0.0521
   5524 H          27.4283   12.8376    9.3237 H     921  UNL921      0.0521
   5525 H          27.9386   11.7810   10.6662 H     921  UNL921      0.0521
   5526 H          25.2715   12.5379   10.0370 H     921  UNL921      0.2090
   5527 O          27.2108   12.5970   13.4466 O.3   922  UNL922     -0.3982
   5528 C          25.9844   12.2686   12.8201 C.3   922  UNL922      0.0330
   5529 H          25.7619   13.0052   12.0440 H     922  UNL922      0.0521
   5530 H          25.1854   12.2563   13.5654 H     922  UNL922      0.0521
   5531 H          26.0712   11.2788   12.3659 H     922  UNL922      0.0521
   5532 H          27.1032   13.4796   13.8403 H     922  UNL922      0.2090
   5533 O          27.0967   12.5501   15.8769 O.3   923  UNL923     -0.3982
   5534 C          25.6809   12.5501   15.8769 C.3   923  UNL923      0.0330
   5535 H          25.3156   11.5212   15.8306 H     923  UNL923      0.0521
   5536 H          25.3157   13.1168   15.0169 H     923  UNL923      0.0521
   5537 H          25.3256   13.0195   16.7973 H     923  UNL923      0.0521
   5538 H          27.3824   12.1278   15.0489 H     923  UNL923      0.2090
   5539 O          25.5782   12.5777   18.7687 O.3   924  UNL924     -0.3982
   5540 C          26.9016   12.6130   18.2668 C.3   924  UNL924      0.0330
   5541 H          27.1122   11.6867   17.7265 H     924  UNL924      0.0521
   5542 H          27.6035   12.7315   19.0958 H     924  UNL924      0.0521
   5543 H          27.0003   13.4607   17.5847 H     924  UNL924      0.0521
   5544 H          25.5211   11.8159   19.3704 H     924  UNL924      0.2090
   5545 O          26.1734   11.8749   22.8279 O.3   925  UNL925     -0.3982
   5546 C          27.1279   12.5014   21.9908 C.3   925  UNL925      0.0330
   5547 H          27.5702   13.3526   22.5143 H     925  UNL925      0.0521
   5548 H          26.6425   12.8376   21.0713 H     925  UNL925      0.0521
   5549 H          27.9114   11.7810   21.7441 H     925  UNL925      0.0521
   5550 H          25.4914   12.5379   23.0297 H     925  UNL925      0.2090
   5551 O          25.2967   15.3854   -0.4855 O.3   926  UNL926     -0.3982
   5552 C          23.8809   15.3854   -0.4855 C.3   926  UNL926      0.0330
   5553 H          23.5156   14.3595   -0.5768 H     926  UNL926      0.0521
   5554 H          23.5157   15.9891   -1.3198 H     926  UNL926      0.0521
   5555 H          23.5256   15.8141    0.4545 H     926  UNL926      0.0521
   5556 H          25.5824   14.9998   -1.3312 H     926  UNL926      0.2090
   5557 O          27.2967   15.2145    1.9959 O.3   927  UNL927     -0.3982
   5558 C          25.8809   15.2145    1.9959 C.3   927  UNL927      0.0330
   5559 H          25.5156   16.2073    1.7217 H     927  UNL927      0.0521
   5560 H          25.5157   14.9415    2.9889 H     927  UNL927      0.0521
   5561 H          25.5256   14.4835    1.2658 H     927  UNL927      0.0521
   5562 H          27.5824   15.8721    2.6527 H     927  UNL927      0.2090
   5563 O          25.9415   15.4524    4.8985 O.3   928  UNL928     -0.3982
   5564 C          27.3269   15.1707    4.9737 C.3   928  UNL928      0.0330
   5565 H          27.8838   16.1039    5.0888 H     928  UNL928      0.0521
   5566 H          27.6445   14.6543    4.0646 H     928  UNL928      0.0521
   5567 H          27.5126   14.5291    5.8382 H     928  UNL928      0.0521
   5568 H          25.8076   16.0229    4.1225 H     928  UNL928      0.2090
   5569 O          27.4967   15.2547    7.4221 O.3   929  UNL929     -0.3982
   5570 C          26.0809   15.2547    7.4221 C.3   929  UNL929      0.0330
   5571 H          25.7156   16.2830    7.4812 H     929  UNL929      0.0521
   5572 H          25.7157   14.6774    8.2750 H     929  UNL929      0.0521
   5573 H          25.7256   14.7968    6.4960 H     929  UNL929      0.0521
   5574 H          27.7824   15.6667    8.2553 H     929  UNL929      0.2090
   5575 O          26.0751   15.4665    9.7657 O.3   930  UNL930     -0.3982
   5576 C          27.3447   15.4665   10.3922 C.3   930  UNL930      0.0330
   5577 H          27.9755   14.6975    9.9394 H     930  UNL930      0.0521
   5578 H          27.2247   15.2718   11.4607 H     930  UNL930      0.0521
   5579 H          27.8099   16.4451   10.2524 H     930  UNL930      0.0521
   5580 H          25.6870   14.5861    9.9065 H     930  UNL930      0.2090
   5581 O          27.2967   15.4665   13.0625 O.3   931  UNL931     -0.3982
   5582 C          25.8809   15.4665   13.0625 C.3   931  UNL931      0.0330
   5583 H          25.5156   14.6975   13.7477 H     931  UNL931      0.0521
   5584 H          25.5157   15.2718   12.0512 H     931  UNL931      0.0521
   5585 H          25.5256   16.4451   13.3937 H     931  UNL931      0.0521
   5586 H          27.5824   14.5861   12.7645 H     931  UNL931      0.2090
   5587 O          27.6967   15.3985   15.8731 O.3   932  UNL932     -0.3982
   5588 C          26.2809   15.3985   15.8731 C.3   932  UNL932      0.0330
   5589 H          25.9156   14.3685   15.8811 H     932  UNL932      0.0521
   5590 H          25.9157   15.9189   14.9844 H     932  UNL932      0.0521
   5591 H          25.9256   15.9158   16.7673 H     932  UNL932      0.0521
   5592 H          27.9824   14.9331   15.0685 H     932  UNL932      0.2090
   5593 O          27.0967   15.2463   18.6008 O.3   933  UNL933     -0.3982
   5594 C          25.6809   15.2463   18.6008 C.3   933  UNL933      0.0330
   5595 H          25.3156   14.7236   17.7133 H     933  UNL933      0.0521
   5596 H          25.3157   16.2761   18.6064 H     933  UNL933      0.0521
   5597 H          25.3256   14.7312   19.4964 H     933  UNL933      0.0521
   5598 H          27.3824   15.7097   17.7951 H     933  UNL933      0.2090
   5599 O          25.8612   16.2384   20.7318 O.3   934  UNL934     -0.3982
   5600 C          26.1498   14.9699   21.2905 C.3   934  UNL934      0.0330
   5601 H          26.3659   15.0806   22.3560 H     934  UNL934      0.0521
   5602 H          27.0092   14.5317   20.7771 H     934  UNL934      0.0521
   5603 H          25.2814   14.3195   21.1627 H     934  UNL934      0.0521
   5604 H          26.6495   16.7931   20.8601 H     934  UNL934      0.2090
   5605 O          25.6571   18.5296   -0.2729 O.3   935  UNL935     -0.3982
   5606 C          26.9113   18.2128   -0.8481 C.3   935  UNL935      0.0330
   5607 H          26.8494   17.2432   -1.3484 H     935  UNL935      0.0521
   5608 H          27.6746   18.1835   -0.0667 H     935  UNL935      0.0521
   5609 H          27.1712   18.9818   -1.5794 H     935  UNL935      0.0521
   5610 H          25.4534   17.8302    0.3713 H     935  UNL935      0.2090
   5611 O          25.6319   18.3078    2.5364 O.3   936  UNL936     -0.3982
   5612 C          26.9015   18.3078    1.9099 C.3   936  UNL936      0.0330
   5613 H          26.9259   17.5388    1.1338 H     936  UNL936      0.0521
   5614 H          27.6765   18.1131    2.6552 H     936  UNL936      0.0521
   5615 H          27.0736   19.2864    1.4557 H     936  UNL936      0.0521
   5616 H          25.5075   17.4274    2.9301 H     936  UNL936      0.2090
   5617 O          25.1867   17.9201    5.0712 O.3   937  UNL937     -0.3982
   5618 C          26.4563   18.3912    4.6581 C.3   937  UNL937      0.0330
   5619 H          26.9549   17.6226    4.0622 H     937  UNL937      0.0521
   5620 H          27.0591   18.6344    5.5364 H     937  UNL937      0.0521
   5621 H          26.3217   19.2895    4.0511 H     937  UNL937      0.0521
   5622 H          25.3382   17.1232    5.6074 H     937  UNL937      0.2090
   5623 O          25.6059   18.0558    7.1784 O.3   938  UNL938     -0.3982
   5624 C          26.8755   18.0558    7.8049 C.3   938  UNL938      0.0330
   5625 H          27.0818   19.0486    8.2124 H     938  UNL938      0.0521
   5626 H          27.6424   17.7828    7.0760 H     938  UNL938      0.0521
   5627 H          26.8710   17.3248    8.6168 H     938  UNL938      0.0521
   5628 H          25.6403   18.7134    6.4630 H     938  UNL938      0.2090
   5629 O          25.6967   18.0678   10.4046 O.3   939  UNL939     -0.3982
   5630 C          24.2809   18.0678   10.4046 C.3   939  UNL939      0.0330
   5631 H          23.9156   17.6912    9.4459 H     939  UNL939      0.0521
   5632 H          23.9157   19.0839   10.5721 H     939  UNL939      0.0521
   5633 H          23.9256   17.4182   11.2080 H     939  UNL939      0.0521
   5634 H          25.9824   18.6522    9.6818 H     939  UNL939      0.2090
   5635 O          25.2967   18.2624   13.1296 O.3   940  UNL940     -0.3982
   5636 C          23.8809   18.2624   13.1296 C.3   940  UNL940      0.0330
   5637 H          23.5156   17.2509   13.3238 H     940  UNL940      0.0521
   5638 H          23.5157   18.6134   12.1614 H     940  UNL940      0.0521
   5639 H          23.5256   18.9329   13.9155 H     940  UNL940      0.0521
   5640 H          25.5824   17.6591   12.4225 H     940  UNL940      0.2090
   5641 O          27.2852   18.0558   16.5949 O.3   941  UNL941     -0.3982
   5642 C          26.5298   18.0558   15.3975 C.3   941  UNL941      0.0330
   5643 H          26.5668   19.0486   14.9422 H     941  UNL941      0.0521
   5644 H          25.4951   17.7828   15.6184 H     941  UNL941      0.0521
   5645 H          26.9577   17.3248   14.7075 H     941  UNL941      0.0521
   5646 H          26.8822   18.7134   17.1870 H     941  UNL941      0.2090
   5647 O          24.9724   18.3742   19.2253 O.3   942  UNL942     -0.3982
   5648 C          23.9080   17.9833   18.3775 C.3   942  UNL942      0.0330
   5649 H          24.3100   17.4789   17.4954 H     942  UNL942      0.0521
   5650 H          23.3372   18.8655   18.0776 H     942  UNL942      0.0521
   5651 H          23.2546   17.2968   18.9210 H     942  UNL942      0.0521
   5652 H          25.5347   18.9825   18.7161 H     942  UNL942      0.2090
   5653 O          25.6967   18.2561   22.0754 O.3   943  UNL943     -0.3982
   5654 C          24.2809   18.2561   22.0754 C.3   943  UNL943      0.0330
   5655 H          23.9156   18.6578   23.0239 H     943  UNL943      0.0521
   5656 H          23.9157   17.2359   21.9348 H     943  UNL943      0.0521
   5657 H          23.9256   18.8842   21.2552 H     943  UNL943      0.0521
   5658 H          25.9824   17.6910   22.8134 H     943  UNL943      0.2090
   5659 O          27.6967   20.8971   -0.7317 O.3   944  UNL944     -0.3982
   5660 C          26.2809   20.8971   -0.7317 C.3   944  UNL944      0.0330
   5661 H          25.9156   21.8899   -1.0058 H     944  UNL944      0.0521
   5662 H          25.9157   20.6241    0.2614 H     944  UNL944      0.0521
   5663 H          25.9256   20.1661   -1.4617 H     944  UNL944      0.0521
   5664 H          27.9824   21.5547   -0.0748 H     944  UNL944      0.2090
   5665 O          26.4967   21.0974    1.9826 O.3   945  UNL945     -0.3982
   5666 C          25.0809   21.0974    1.9826 C.3   945  UNL945      0.0330
   5667 H          24.7156   21.4991    2.9310 H     945  UNL945      0.0521
   5668 H          24.7157   20.0772    1.8420 H     945  UNL945      0.0521
   5669 H          24.7256   21.7255    1.1623 H     945  UNL945      0.0521
   5670 H          26.7824   20.5323    2.7205 H     945  UNL945      0.2090
   5671 O          25.4751   20.7701    4.3447 O.3   946  UNL946     -0.3982
   5672 C          26.7447   21.1832    4.8157 C.3   946  UNL946      0.0330
   5673 H          27.3755   20.3065    4.9823 H     946  UNL946      0.0521
   5674 H          26.6247   21.7414    5.7474 H     946  UNL946      0.0521
   5675 H          27.2099   21.8267    4.0653 H     946  UNL946      0.0521
   5676 H          25.0870   20.2010    5.0310 H     946  UNL946      0.2090
   5677 O          26.4967   21.0592    7.4164 O.3   947  UNL947     -0.3982
   5678 C          25.0809   21.0592    7.4164 C.3   947  UNL947      0.0330
   5679 H          24.7156   21.7138    8.2116 H     947  UNL947      0.0521
   5680 H          24.7157   20.0411    7.5713 H     947  UNL947      0.0521
   5681 H          24.7256   21.4285    6.4515 H     947  UNL947      0.0521
   5682 H          26.7824   20.7270    8.2844 H     947  UNL947      0.2090
   5683 O          26.8238   20.0000   10.6498 O.3   948  UNL948     -0.3982
   5684 C          26.4772   21.3407   10.3551 C.3   948  UNL948      0.0330
   5685 H          25.7911   21.3622    9.5047 H     948  UNL948      0.0521
   5686 H          27.3811   21.9088   10.1220 H     948  UNL948      0.0521
   5687 H          25.9876   21.7810   11.2268 H     948  UNL948      0.0521
   5688 H          27.2561   19.6361    9.8585 H     948  UNL948      0.2090
   5689 O          25.5342   21.0449   12.9493 O.3   949  UNL949     -0.3982
   5690 C          26.9455   21.1521   12.9145 C.3   949  UNL949      0.0330
   5691 H          27.3709   20.2388   12.4909 H     949  UNL949      0.0521
   5692 H          27.3251   21.3079   13.9272 H     949  UNL949      0.0521
   5693 H          27.2218   22.0042   12.2891 H     949  UNL949      0.0521
   5694 H          25.3195   20.2809   13.5112 H     949  UNL949      0.2090
   5695 O          24.8058   20.6247   15.6336 O.3   950  UNL950     -0.3982
   5696 C          26.0754   21.2513   15.6336 C.3   950  UNL950      0.0330
   5697 H          26.8424   20.5226   15.3595 H     950  UNL950      0.0521
   5698 H          26.2822   21.6576   16.6267 H     950  UNL950      0.0521
   5699 H          26.0706   22.0640   14.9036 H     950  UNL950      0.0521
   5700 H          24.8406   19.9086   16.2905 H     950  UNL950      0.2090
   5701 O          27.1902   21.4959   18.4799 O.3   951  UNL951     -0.3982
   5702 C          25.8548   21.0317   18.4047 C.3   951  UNL951      0.0330
   5703 H          25.5297   20.6931   19.3916 H     951  UNL951      0.0521
   5704 H          25.7937   20.2097   17.6873 H     951  UNL951      0.0521
   5705 H          25.2122   21.8505   18.0728 H     951  UNL951      0.0521
   5706 H          27.7364   20.7481   18.7766 H     951  UNL951      0.2090
   5707 O          27.4967   20.8971   21.8887 O.3   952  UNL952     -0.3982
   5708 C          26.0809   20.8971   21.8887 C.3   952  UNL952      0.0330
   5709 H          25.7156   21.8899   21.6146 H     952  UNL952      0.0521
   5710 H          25.7157   20.6241   22.8818 H     952  UNL952      0.0521
   5711 H          25.7256   20.1661   21.1587 H     952  UNL952      0.0521
   5712 H          27.7824   21.5547   22.5456 H     952  UNL952      0.2090
   5713 O          27.1291   23.0216   -0.6339 O.3   953  UNL953     -0.3982
   5714 C          26.0647   23.9551   -0.6339 C.3   953  UNL953      0.0330
   5715 H          26.1631   24.6212   -1.4947 H     953  UNL953      0.0521
   5716 H          26.0866   24.5340    0.2927 H     953  UNL953      0.0521
   5717 H          25.1178   23.4143   -0.7007 H     953  UNL953      0.0521
   5718 H          27.9555   23.5305   -0.5737 H     953  UNL953      0.2090
   5719 O          26.7780   22.9854    2.7235 O.3   954  UNL954     -0.3982
   5720 C          26.9028   24.1594    1.9421 C.3   954  UNL954      0.0330
   5721 H          27.1946   23.8911    0.9237 H     954  UNL954      0.0521
   5722 H          27.6545   24.8160    2.3870 H     954  UNL954      0.0521
   5723 H          25.9398   24.6749    1.9190 H     954  UNL954      0.0521
   5724 H          27.6473   22.5498    2.7256 H     954  UNL954      0.2090
   5725 O          25.9173   23.2401    4.8799 O.3   955  UNL955     -0.3982
   5726 C          27.1869   23.8666    4.8799 C.3   955  UNL955      0.0330
   5727 H          27.1742   24.7178    5.5651 H     955  UNL955      0.0521
   5728 H          27.4283   24.2028    3.8686 H     955  UNL955      0.0521
   5729 H          27.9386   23.1462    5.2111 H     955  UNL955      0.0521
   5730 H          25.2715   23.9031    4.5819 H     955  UNL955      0.2090
   5731 O          25.6059   23.7384    7.1784 O.3   956  UNL956     -0.3982
   5732 C          26.8755   23.7384    7.8049 C.3   956  UNL956      0.0330
   5733 H          27.0818   24.7312    8.2124 H     956  UNL956      0.0521
   5734 H          27.6424   23.4654    7.0760 H     956  UNL956      0.0521
   5735 H          26.8710   23.0074    8.6168 H     956  UNL956      0.0521
   5736 H          25.6403   24.3960    6.4630 H     956  UNL956      0.2090
   5737 O          25.6967   23.7290   10.1888 O.3   957  UNL957     -0.3982
   5738 C          24.2809   23.7290   10.1888 C.3   957  UNL957      0.0330
   5739 H          23.9156   24.6927    9.8254 H     957  UNL957      0.0521
   5740 H          23.9157   23.5476   11.2026 H     957  UNL957      0.0521
   5741 H          23.9256   22.9346    9.5283 H     957  UNL957      0.0521
   5742 H          25.9824   24.4437   10.7830 H     957  UNL957      0.2090
   5743 O          25.7173   23.2401   13.0625 O.3   958  UNL958     -0.3982
   5744 C          26.9869   23.8666   13.0625 C.3   958  UNL958      0.0330
   5745 H          26.9742   24.7178   13.7477 H     958  UNL958      0.0521
   5746 H          27.2283   24.2028   12.0512 H     958  UNL958      0.0521
   5747 H          27.7386   23.1462   13.3937 H     958  UNL958      0.0521
   5748 H          25.0715   23.9031   12.7645 H     958  UNL958      0.2090
   5749 O          27.0967   23.9904   15.7901 O.3   959  UNL959     -0.3982
   5750 C          25.6809   23.9904   15.7901 C.3   959  UNL959      0.0330
   5751 H          25.3156   23.2214   16.4753 H     959  UNL959      0.0521
   5752 H          25.3157   23.7957   14.7788 H     959  UNL959      0.0521
   5753 H          25.3256   24.9690   16.1213 H     959  UNL959      0.0521
   5754 H          27.3824   23.1100   15.4921 H     959  UNL959      0.2090
   5755 O          25.8319   23.9904   18.9017 O.3   960  UNL960     -0.3982
   5756 C          27.1015   23.9904   18.2752 C.3   960  UNL960      0.0330
   5757 H          27.1259   23.2214   17.4991 H     960  UNL960      0.0521
   5758 H          27.8765   23.7957   19.0205 H     960  UNL960      0.0521
   5759 H          27.2736   24.9690   17.8210 H     960  UNL960      0.0521
   5760 H          25.7076   23.1100   19.2954 H     960  UNL960      0.2090
   5761 O          25.4319   23.9904   22.4293 O.3   961  UNL961     -0.3982
   5762 C          26.7015   23.9904   21.8027 C.3   961  UNL961      0.0330
   5763 H          26.7259   23.2214   21.0266 H     961  UNL961      0.0521
   5764 H          27.4765   23.7957   22.5480 H     961  UNL961      0.0521
   5765 H          26.8736   24.9690   21.3485 H     961  UNL961      0.0521
   5766 H          25.3075   23.1100   22.8229 H     961  UNL961      0.2090
   5767 O          27.6967   26.8317   -0.5752 O.3   962  UNL962     -0.3982
   5768 C          26.2809   26.8317   -0.5752 C.3   962  UNL962      0.0330
   5769 H          25.9156   26.0627    0.1100 H     962  UNL962      0.0521
   5770 H          25.9157   26.6370   -1.5865 H     962  UNL962      0.0521
   5771 H          25.9256   27.8103   -0.2440 H     962  UNL962      0.0521
   5772 H          27.9824   25.9513   -0.8732 H     962  UNL962      0.2090
   5773 O          25.4967   26.5797    1.9959 O.3   963  UNL963     -0.3982
   5774 C          24.0809   26.5797    1.9959 C.3   963  UNL963      0.0330
   5775 H          23.7156   27.5725    1.7217 H     963  UNL963      0.0521
   5776 H          23.7157   26.3067    2.9889 H     963  UNL963      0.0521
   5777 H          23.7256   25.8486    1.2658 H     963  UNL963      0.0521
   5778 H          25.7824   27.2373    2.6527 H     963  UNL963      0.2090
   5779 O          25.3203   26.1115    4.6227 O.3   964  UNL964     -0.3982
   5780 C          26.5899   26.7074    4.8165 C.3   964  UNL964      0.0330
   5781 H          26.7465   26.8953    5.8816 H     964  UNL964      0.0521
   5782 H          26.6421   27.6454    4.2585 H     964  UNL964      0.0521
   5783 H          27.3617   26.0256    4.4517 H     964  UNL964      0.0521
   5784 H          24.6564   26.7392    4.9555 H     964  UNL964      0.2090
   5785 O          27.4967   26.5637    7.6904 O.3   965  UNL965     -0.3982
   5786 C          26.0809   26.5637    7.6904 C.3   965  UNL965      0.0330
   5787 H          25.7156   25.5337    7.6985 H     965  UNL965      0.0521
   5788 H          25.7157   27.0841    6.8017 H     965  UNL965      0.0521
   5789 H          25.7256   27.0810    8.5847 H     965  UNL965      0.0521
   5790 H          27.7824   26.0983    6.8859 H     965  UNL965      0.2090
   5791 O          27.8340   25.9693   10.3536 O.3   966  UNL966     -0.3982
   5792 C          26.8520   26.9865   10.4288 C.3   966  UNL966      0.0330
   5793 H          25.8644   26.5330   10.5439 H     966  UNL966      0.0521
   5794 H          26.8830   27.5919    9.5197 H     966  UNL966      0.0521
   5795 H          27.0625   27.6204   11.2933 H     966  UNL966      0.0521
   5796 H          27.6210   25.4234    9.5776 H     966  UNL966      0.2090
   5797 O          27.2967   26.7923   13.1241 O.3   967  UNL967     -0.3982
   5798 C          25.8809   26.7923   13.1241 C.3   967  UNL967      0.0330
   5799 H          25.5156   25.7926   13.3720 H     967  UNL967      0.0521
   5800 H          25.5157   27.0913   12.1386 H     967  UNL967      0.0521
   5801 H          25.5256   27.5038   13.8732 H     967  UNL967      0.0521
   5802 H          27.5824   26.1522   12.4502 H     967  UNL967      0.2090
   5803 O          24.1286   27.2811   16.5989 O.3   968  UNL968     -0.3982
   5804 C          23.6072   26.6610   15.4378 C.3   968  UNL968      0.0330
   5805 H          23.1113   25.7271   15.7139 H     968  UNL968      0.0521
   5806 H          24.4194   26.4607   14.7348 H     968  UNL968      0.0521
   5807 H          22.8820   27.3321   14.9717 H     968  UNL968      0.0521
   5808 H          24.7685   26.6625   16.9904 H     968  UNL968      0.2090
   5809 O          27.3972   26.8317   19.2158 O.3   969  UNL969     -0.3982
   5810 C          26.3327   26.8317   18.2823 C.3   969  UNL969      0.0330
   5811 H          25.6063   26.0627   18.5565 H     969  UNL969      0.0521
   5812 H          26.7250   26.6370   17.2811 H     969  UNL969      0.0521
   5813 H          25.8472   27.8103   18.2970 H     969  UNL969      0.0521
   5814 H          27.8084   25.9513   19.1802 H     969  UNL969      0.2090
   5815 O          27.6967   26.8317   22.2452 O.3   970  UNL970     -0.3982
   5816 C          26.2809   26.8317   22.2452 C.3   970  UNL970      0.0330
   5817 H          25.9156   26.0627   22.9304 H     970  UNL970      0.0521
   5818 H          25.9157   26.6370   21.2339 H     970  UNL970      0.0521
   5819 H          25.9256   27.8103   22.5764 H     970  UNL970      0.0521
   5820 H          27.9824   25.9513   21.9472 H     970  UNL970      0.2090
   5821 O          27.4562   29.3091    1.8574 O.3   971  UNL971     -0.3982
   5822 C          26.1134   29.7244    2.0271 C.3   971  UNL971      0.0330
   5823 H          25.9864   30.1514    3.0250 H     971  UNL971      0.0521
   5824 H          25.4472   28.8679    1.8983 H     971  UNL971      0.0521
   5825 H          25.8782   30.4823    1.2762 H     971  UNL971      0.0521
   5826 H          27.6355   28.6372    2.5370 H     971  UNL971      0.2090
   5827 O          27.4967   29.1922    5.2985 O.3   972  UNL972     -0.3982
   5828 C          26.0809   29.1922    5.2985 C.3   972  UNL972      0.0330
   5829 H          25.7156   29.2516    4.2703 H     972  UNL972      0.0521
   5830 H          25.7157   30.0448    5.8761 H     972  UNL972      0.0521
   5831 H          25.7256   28.2659    5.7561 H     972  UNL972      0.0521
   5832 H          27.7824   30.0255    4.8868 H     972  UNL972      0.2090
   5833 O          26.4967   29.4033    7.6450 O.3   973  UNL973     -0.3982
   5834 C          25.0809   29.4033    7.6450 C.3   973  UNL973      0.0330
   5835 H          24.7156   29.3145    6.6188 H     973  UNL973      0.0521
   5836 H          24.7157   30.3300    8.0942 H     973  UNL973      0.0521
   5837 H          24.7256   28.5523    8.2308 H     973  UNL973      0.0521
   5838 H          26.7824   30.1689    7.1180 H     973  UNL973      0.2090
   5839 O          25.7173   28.9227   10.3350 O.3   974  UNL974     -0.3982
   5840 C          26.9869   29.5492   10.3350 C.3   974  UNL974      0.0330
   5841 H          26.9742   30.4004   11.0202 H     974  UNL974      0.0521
   5842 H          27.2283   29.8854    9.3237 H     974  UNL974      0.0521
   5843 H          27.7386   28.8288   10.6662 H     974  UNL974      0.0521
   5844 H          25.0715   29.5857   10.0370 H     974  UNL974      0.2090
   5845 O          25.1011   29.4210   13.5869 O.3   975  UNL975     -0.3982
   5846 C          26.3707   29.4210   12.9604 C.3   975  UNL975      0.0330
   5847 H          26.8196   30.4138   13.0446 H     975  UNL975      0.0521
   5848 H          26.2588   29.1480   11.9082 H     975  UNL975      0.0521
   5849 H          27.0124   28.6900   13.4578 H     975  UNL975      0.0521
   5850 H          24.5542   30.0786   13.1243 H     975  UNL975      0.2090
   5851 O          26.0284   29.1949   16.0412 O.3   976  UNL976     -0.3982
   5852 C          27.2238   29.7638   15.5392 C.3   976  UNL976      0.0330
   5853 H          27.7919   29.0026   14.9989 H     976  UNL976      0.0521
   5854 H          27.8174   30.1568   16.3682 H     976  UNL976      0.0521
   5855 H          26.9703   30.5787   14.8571 H     976  UNL976      0.0521
   5856 H          26.2852   28.4754   16.6429 H     976  UNL976      0.2090
   5857 O          25.9090   30.1242   19.2697 O.3   977  UNL977     -0.3982
   5858 C          27.1786   29.5041   19.3596 C.3   977  UNL977      0.0330
   5859 H          27.5455   29.2757   18.3559 H     977  UNL977      0.0521
   5860 H          27.0960   28.5862   19.9467 H     977  UNL977      0.0521
   5861 H          27.8738   30.1878   19.8524 H     977  UNL977      0.0521
   5862 H          25.3140   29.4942   18.8286 H     977  UNL977      0.2090
   5863 O          26.4967   29.4423   22.0709 O.3   978  UNL978     -0.3982
   5864 C          25.0809   29.4423   22.0709 C.3   978  UNL978      0.0330
   5865 H          24.7156   30.4684   21.9819 H     978  UNL978      0.0521
   5866 H          24.7157   28.9934   22.9978 H     978  UNL978      0.0521
   5867 H          24.7256   28.8562   21.2202 H     978  UNL978      0.0521
   5868 H          26.7824   29.9696   22.8364 H     978  UNL978      0.2090
   5869 O          26.0751   32.1353   -1.1104 O.3   979  UNL979     -0.3982
   5870 C          27.3447   32.5484   -0.6394 C.3   979  UNL979      0.0330
   5871 H          27.9755   31.6717   -0.4728 H     979  UNL979      0.0521
   5872 H          27.2247   33.1066    0.2923 H     979  UNL979      0.0521
   5873 H          27.8099   33.1919   -1.3898 H     979  UNL979      0.0521
   5874 H          25.6870   31.5662   -0.4241 H     979  UNL979      0.2090
   5875 O          27.2967   32.5143    2.1523 O.3   980  UNL980     -0.3982
   5876 C          25.8809   32.5143    2.1523 C.3   980  UNL980      0.0330
   5877 H          25.5156   31.7453    2.8375 H     980  UNL980      0.0521
   5878 H          25.5157   32.3196    1.1410 H     980  UNL980      0.0521
   5879 H          25.5256   33.4929    2.4835 H     980  UNL980      0.0521
   5880 H          27.5824   31.6339    1.8543 H     980  UNL980      0.2090
   5881 O          26.5112   33.3306    4.8799 O.3   981  UNL981     -0.3982
   5882 C          27.0014   32.0024    4.8799 C.3   981  UNL981      0.0330
   5883 H          27.8493   31.9260    5.5651 H     981  UNL981      0.0521
   5884 H          27.3105   31.7272    3.8686 H     981  UNL981      0.0521
   5885 H          26.2064   31.3303    5.2111 H     981  UNL981      0.0521
   5886 H          27.2382   33.9035    4.5819 H     981  UNL981      0.2090
   5887 O          27.2967   32.3228    7.4138 O.3   982  UNL982     -0.3982
   5888 C          25.8809   32.3228    7.4138 C.3   982  UNL982      0.0330
   5889 H          25.5156   33.3320    7.6198 H     982  UNL982      0.0521
   5890 H          25.5157   31.6291    8.1750 H     982  UNL982      0.0521
   5891 H          25.5256   32.0025    6.4316 H     982  UNL982      0.0521
   5892 H          27.5824   32.6109    8.2975 H     982  UNL982      0.2090
   5893 O          26.0751   32.1353    9.7998 O.3   983  UNL983     -0.3982
   5894 C          27.3447   32.5484   10.2708 C.3   983  UNL983      0.0330
   5895 H          27.9755   31.6717   10.4374 H     983  UNL983      0.0521
   5896 H          27.2247   33.1066   11.2025 H     983  UNL983      0.0521
   5897 H          27.8099   33.1919    9.5204 H     983  UNL983      0.0521
   5898 H          25.6870   31.5662   10.4861 H     983  UNL983      0.2090
   5899 O          27.4967   32.5143   13.0625 O.3   984  UNL984     -0.3982
   5900 C          26.0809   32.5143   13.0625 C.3   984  UNL984      0.0330
   5901 H          25.7156   31.7453   13.7477 H     984  UNL984      0.0521
   5902 H          25.7157   32.3196   12.0512 H     984  UNL984      0.0521
   5903 H          25.7256   33.4929   13.3937 H     984  UNL984      0.0521
   5904 H          27.7824   31.6339   12.7645 H     984  UNL984      0.2090
   5905 O          26.8967   32.2191   15.7613 O.3   985  UNL985     -0.3982
   5906 C          25.4809   32.2191   15.7613 C.3   985  UNL985      0.0330
   5907 H          25.1156   32.6054   14.8066 H     985  UNL985      0.0521
   5908 H          25.1157   32.8412   16.5821 H     985  UNL985      0.0521
   5909 H          25.1256   31.1949   15.8974 H     985  UNL985      0.0521
   5910 H          27.1824   33.1404   15.6390 H     985  UNL985      0.2090
   5911 O          25.8181   32.5479   19.1828 O.3   986  UNL986     -0.3982
   5912 C          26.7549   32.1589   18.1951 C.3   986  UNL986      0.0330
   5913 H          27.7163   31.9436   18.6680 H     986  UNL986      0.0521
   5914 H          26.8687   32.9623   17.4632 H     986  UNL986      0.0521
   5915 H          26.3891   31.2604   17.6926 H     986  UNL986      0.0521
   5916 H          26.1697   33.3469   19.6111 H     986  UNL986      0.2090
   5917 O          27.4967   32.5143   22.2452 O.3   987  UNL987     -0.3982
   5918 C          26.0809   32.5143   22.2452 C.3   987  UNL987      0.0330
   5919 H          25.7156   31.7453   22.9304 H     987  UNL987      0.0521
   5920 H          25.7157   32.3196   21.2339 H     987  UNL987      0.0521
   5921 H          25.7256   33.4929   22.5764 H     987  UNL987      0.0521
   5922 H          27.7824   31.6339   21.9472 H     987  UNL987      0.2090
   5923 O          26.0247   37.1737    0.4050 O.3   988  UNL988     -0.3982
   5924 C          26.9554   36.2656    0.9651 C.3   988  UNL988      0.0330
   5925 H          26.7102   35.2491    0.6476 H     988  UNL988      0.0521
   5926 H          26.9236   36.3360    2.0551 H     988  UNL988      0.0521
   5927 H          27.9577   36.5227    0.6146 H     988  UNL988      0.0521
   5928 H          25.1453   36.9207    0.7337 H     988  UNL988      0.2090
   5929 O          27.5446   36.9261    4.0293 O.3   989  UNL989     -0.3982
   5930 C          26.8505   36.4339    5.1608 C.3   989  UNL989      0.0330
   5931 H          27.4618   35.6818    5.6657 H     989  UNL989      0.0521
   5932 H          25.9012   35.9948    4.8445 H     989  UNL989      0.0521
   5933 H          26.6558   37.2621    5.8463 H     989  UNL989      0.0521
   5934 H          27.7030   36.1692    3.4398 H     989  UNL989      0.2090
   5935 O          27.2967   35.8859    7.6450 O.3   990  UNL990     -0.3982
   5936 C          25.8809   35.8859    7.6450 C.3   990  UNL990      0.0330
   5937 H          25.5156   35.7971    6.6188 H     990  UNL990      0.0521
   5938 H          25.5157   36.8126    8.0942 H     990  UNL990      0.0521
   5939 H          25.5256   35.0349    8.2308 H     990  UNL990      0.0521
   5940 H          27.5824   36.6515    7.1180 H     990  UNL990      0.2090
   5941 O          26.3408   35.1608   10.3350 O.3   991  UNL991     -0.3982
   5942 C          26.8822   36.4690   10.3350 C.3   991  UNL991      0.0330
   5943 H          26.3114   37.1006   11.0202 H     991  UNL991      0.0521
   5944 H          26.8420   36.8809    9.3237 H     991  UNL991      0.0521
   5945 H          27.9223   36.4231   10.6662 H     991  UNL991      0.0521
   5946 H          25.4181   35.2335   10.0370 H     991  UNL991      0.2090
   5947 O          26.4967   35.3272   12.9149 O.3   992  UNL992     -0.3982
   5948 C          25.0809   35.3272   12.9149 C.3   992  UNL992      0.0330
   5949 H          24.7156   35.5211   13.9265 H     992  UNL992      0.0521
   5950 H          24.7157   34.3591   12.5635 H     992  UNL992      0.0521
   5951 H          24.7256   36.1133   12.2446 H     992  UNL992      0.0521
   5952 H          26.7824   34.6199   13.5179 H     992  UNL992      0.2090
   5953 O          27.6967   36.0604   15.7613 O.3   993  UNL993     -0.3982
   5954 C          26.2809   36.0604   15.7613 C.3   993  UNL993      0.0330
   5955 H          25.9156   36.4467   14.8066 H     993  UNL993      0.0521
   5956 H          25.9157   36.6825   16.5821 H     993  UNL993      0.0521
   5957 H          25.9256   35.0362   15.8974 H     993  UNL993      0.0521
   5958 H          27.9824   36.9817   15.6390 H     993  UNL993      0.2090
   5959 O          26.4967   35.1156   18.5872 O.3   994  UNL994     -0.3982
   5960 C          25.0809   35.1156   18.5872 C.3   994  UNL994      0.0330
   5961 H          24.7156   34.7390   17.6285 H     994  UNL994      0.0521
   5962 H          24.7157   36.1317   18.7547 H     994  UNL994      0.0521
   5963 H          24.7256   34.4660   19.3906 H     994  UNL994      0.0521
   5964 H          26.7824   35.7000   17.8645 H     994  UNL994      0.2090
   5965 O          27.4967   36.3556   22.2452 O.3   995  UNL995     -0.3982
   5966 C          26.0809   36.3556   22.2452 C.3   995  UNL995      0.0330
   5967 H          25.7156   35.5866   22.9304 H     995  UNL995      0.0521
   5968 H          25.7157   36.1609   21.2339 H     995  UNL995      0.0521
   5969 H          25.7256   37.3342   22.5764 H     995  UNL995      0.0521
   5970 H          27.7824   35.4752   21.9472 H     995  UNL995      0.2090
@<TRIPOS>BOND
     1     1     2    1
     2     1     6    1
     3     2     3    1
     4     2     4    1
     5     2     5    1
     6     7     8    1
     7     7    12    1
     8     8     9    1
     9     8    10    1
    10     8    11    1
    11    13    14    1
    12    13    18    1
    13    14    15    1
    14    14    16    1
    15    14    17    1
    16    19    20    1
    17    19    24    1
    18    20    21    1
    19    20    22    1
    20    20    23    1
    21    25    26    1
    22    25    30    1
    23    26    27    1
    24    26    28    1
    25    26    29    1
    26    31    32    1
    27    31    36    1
    28    32    33    1
    29    32    34    1
    30    32    35    1
    31    37    38    1
    32    37    42    1
    33    38    39    1
    34    38    40    1
    35    38    41    1
    36    43    44    1
    37    43    48    1
    38    44    45    1
    39    44    46    1
    40    44    47    1
    41    49    50    1
    42    49    54    1
    43    50    51    1
    44    50    52    1
    45    50    53    1
    46    55    56    1
    47    55    60    1
    48    56    57    1
    49    56    58    1
    50    56    59    1
    51    61    62    1
    52    61    66    1
    53    62    63    1
    54    62    64    1
    55    62    65    1
    56    67    68    1
    57    67    72    1
    58    68    69    1
    59    68    70    1
    60    68    71    1
    61    73    74    1
    62    73    78    1
    63    74    75    1
    64    74    76    1
    65    74    77    1
    66    79    80    1
    67    79    84    1
    68    80    81    1
    69    80    82    1
    70    80    83    1
    71    85    86    1
    72    85    90    1
    73    86    87    1
    74    86    88    1
    75    86    89    1
    76    91    92    1
    77    91    96    1
    78    92    93    1
    79    92    94    1
    80    92    95    1
    81    97    98    1
    82    97   102    1
    83    98    99    1
    84    98   100    1
    85    98   101    1
    86   103   104    1
    87   103   108    1
    88   104   105    1
    89   104   106    1
    90   104   107    1
    91   109   110    1
    92   109   114    1
    93   110   111    1
    94   110   112    1
    95   110   113    1
    96   115   116    1
    97   115   120    1
    98   116   117    1
    99   116   118    1
   100   116   119    1
   101   121   122    1
   102   121   126    1
   103   122   123    1
   104   122   124    1
   105   122   125    1
   106   127   128    1
   107   127   132    1
   108   128   129    1
   109   128   130    1
   110   128   131    1
   111   133   134    1
   112   133   138    1
   113   134   135    1
   114   134   136    1
   115   134   137    1
   116   139   140    1
   117   139   144    1
   118   140   141    1
   119   140   142    1
   120   140   143    1
   121   145   146    1
   122   145   150    1
   123   146   147    1
   124   146   148    1
   125   146   149    1
   126   151   152    1
   127   151   156    1
   128   152   153    1
   129   152   154    1
   130   152   155    1
   131   157   158    1
   132   157   162    1
   133   158   159    1
   134   158   160    1
   135   158   161    1
   136   163   164    1
   137   163   168    1
   138   164   165    1
   139   164   166    1
   140   164   167    1
   141   169   170    1
   142   169   174    1
   143   170   171    1
   144   170   172    1
   145   170   173    1
   146   175   176    1
   147   175   180    1
   148   176   177    1
   149   176   178    1
   150   176   179    1
   151   181   182    1
   152   181   186    1
   153   182   183    1
   154   182   184    1
   155   182   185    1
   156   187   188    1
   157   187   192    1
   158   188   189    1
   159   188   190    1
   160   188   191    1
   161   193   194    1
   162   193   198    1
   163   194   195    1
   164   194   196    1
   165   194   197    1
   166   199   200    1
   167   199   204    1
   168   200   201    1
   169   200   202    1
   170   200   203    1
   171   205   206    1
   172   205   210    1
   173   206   207    1
   174   206   208    1
   175   206   209    1
   176   211   212    1
   177   211   216    1
   178   212   213    1
   179   212   214    1
   180   212   215    1
   181   217   218    1
   182   217   222    1
   183   218   219    1
   184   218   220    1
   185   218   221    1
   186   223   224    1
   187   223   228    1
   188   224   225    1
   189   224   226    1
   190   224   227    1
   191   229   230    1
   192   229   234    1
   193   230   231    1
   194   230   232    1
   195   230   233    1
   196   235   236    1
   197   235   240    1
   198   236   237    1
   199   236   238    1
   200   236   239    1
   201   241   242    1
   202   241   246    1
   203   242   243    1
   204   242   244    1
   205   242   245    1
   206   247   248    1
   207   247   252    1
   208   248   249    1
   209   248   250    1
   210   248   251    1
   211   253   254    1
   212   253   258    1
   213   254   255    1
   214   254   256    1
   215   254   257    1
   216   259   260    1
   217   259   264    1
   218   260   261    1
   219   260   262    1
   220   260   263    1
   221   265   266    1
   222   265   270    1
   223   266   267    1
   224   266   268    1
   225   266   269    1
   226   271   272    1
   227   271   276    1
   228   272   273    1
   229   272   274    1
   230   272   275    1
   231   277   278    1
   232   277   282    1
   233   278   279    1
   234   278   280    1
   235   278   281    1
   236   283   284    1
   237   283   288    1
   238   284   285    1
   239   284   286    1
   240   284   287    1
   241   289   290    1
   242   289   294    1
   243   290   291    1
   244   290   292    1
   245   290   293    1
   246   295   296    1
   247   295   300    1
   248   296   297    1
   249   296   298    1
   250   296   299    1
   251   301   302    1
   252   301   306    1
   253   302   303    1
   254   302   304    1
   255   302   305    1
   256   307   308    1
   257   307   312    1
   258   308   309    1
   259   308   310    1
   260   308   311    1
   261   313   314    1
   262   313   318    1
   263   314   315    1
   264   314   316    1
   265   314   317    1
   266   319   320    1
   267   319   324    1
   268   320   321    1
   269   320   322    1
   270   320   323    1
   271   325   326    1
   272   325   330    1
   273   326   327    1
   274   326   328    1
   275   326   329    1
   276   331   332    1
   277   331   336    1
   278   332   333    1
   279   332   334    1
   280   332   335    1
   281   337   338    1
   282   337   342    1
   283   338   339    1
   284   338   340    1
   285   338   341    1
   286   343   344    1
   287   343   348    1
   288   344   345    1
   289   344   346    1
   290   344   347    1
   291   349   350    1
   292   349   354    1
   293   350   351    1
   294   350   352    1
   295   350   353    1
   296   355   356    1
   297   355   360    1
   298   356   357    1
   299   356   358    1
   300   356   359    1
   301   361   362    1
   302   361   366    1
   303   362   363    1
   304   362   364    1
   305   362   365    1
   306   367   368    1
   307   367   372    1
   308   368   369    1
   309   368   370    1
   310   368   371    1
   311   373   374    1
   312   373   378    1
   313   374   375    1
   314   374   376    1
   315   374   377    1
   316   379   380    1
   317   379   384    1
   318   380   381    1
   319   380   382    1
   320   380   383    1
   321   385   386    1
   322   385   390    1
   323   386   387    1
   324   386   388    1
   325   386   389    1
   326   391   392    1
   327   391   396    1
   328   392   393    1
   329   392   394    1
   330   392   395    1
   331   397   398    1
   332   397   402    1
   333   398   399    1
   334   398   400    1
   335   398   401    1
   336   403   404    1
   337   403   408    1
   338   404   405    1
   339   404   406    1
   340   404   407    1
   341   409   410    1
   342   409   414    1
   343   410   411    1
   344   410   412    1
   345   410   413    1
   346   415   416    1
   347   415   420    1
   348   416   417    1
   349   416   418    1
   350   416   419    1
   351   421   422    1
   352   421   426    1
   353   422   423    1
   354   422   424    1
   355   422   425    1
   356   427   428    1
   357   427   432    1
   358   428   429    1
   359   428   430    1
   360   428   431    1
   361   433   434    1
   362   433   438    1
   363   434   435    1
   364   434   436    1
   365   434   437    1
   366   439   440    1
   367   439   444    1
   368   440   441    1
   369   440   442    1
   370   440   443    1
   371   445   446    1
   372   445   450    1
   373   446   447    1
   374   446   448    1
   375   446   449    1
   376   451   452    1
   377   451   456    1
   378   452   453    1
   379   452   454    1
   380   452   455    1
   381   457   458    1
   382   457   462    1
   383   458   459    1
   384   458   460    1
   385   458   461    1
   386   463   464    1
   387   463   468    1
   388   464   465    1
   389   464   466    1
   390   464   467    1
   391   469   470    1
   392   469   474    1
   393   470   471    1
   394   470   472    1
   395   470   473    1
   396   475   476    1
   397   475   480    1
   398   476   477    1
   399   476   478    1
   400   476   479    1
   401   481   482    1
   402   481   486    1
   403   482   483    1
   404   482   484    1
   405   482   485    1
   406   487   488    1
   407   487   492    1
   408   488   489    1
   409   488   490    1
   410   488   491    1
   411   493   494    1
   412   493   498    1
   413   494   495    1
   414   494   496    1
   415   494   497    1
   416   499   500    1
   417   499   504    1
   418   500   501    1
   419   500   502    1
   420   500   503    1
   421   505   506    1
   422   505   510    1
   423   506   507    1
   424   506   508    1
   425   506   509    1
   426   511   512    1
   427   511   516    1
   428   512   513    1
   429   512   514    1
   430   512   515    1
   431   517   518    1
   432   517   522    1
   433   518   519    1
   434   518   520    1
   435   518   521    1
   436   523   524    1
   437   523   528    1
   438   524   525    1
   439   524   526    1
   440   524   527    1
   441   529   530    1
   442   529   534    1
   443   530   531    1
   444   530   532    1
   445   530   533    1
   446   535   536    1
   447   535   540    1
   448   536   537    1
   449   536   538    1
   450   536   539    1
   451   541   542    1
   452   541   546    1
   453   542   543    1
   454   542   544    1
   455   542   545    1
   456   547   548    1
   457   547   552    1
   458   548   549    1
   459   548   550    1
   460   548   551    1
   461   553   554    1
   462   553   558    1
   463   554   555    1
   464   554   556    1
   465   554   557    1
   466   559   560    1
   467   559   564    1
   468   560   561    1
   469   560   562    1
   470   560   563    1
   471   565   566    1
   472   565   570    1
   473   566   567    1
   474   566   568    1
   475   566   569    1
   476   571   572    1
   477   571   576    1
   478   572   573    1
   479   572   574    1
   480   572   575    1
   481   577   578    1
   482   577   582    1
   483   578   579    1
   484   578   580    1
   485   578   581    1
   486   583   584    1
   487   583   588    1
   488   584   585    1
   489   584   586    1
   490   584   587    1
   491   589   590    1
   492   589   594    1
   493   590   591    1
   494   590   592    1
   495   590   593    1
   496   595   596    1
   497   595   600    1
   498   596   597    1
   499   596   598    1
   500   596   599    1
   501   601   602    1
   502   601   606    1
   503   602   603    1
   504   602   604    1
   505   602   605    1
   506   607   608    1
   507   607   612    1
   508   608   609    1
   509   608   610    1
   510   608   611    1
   511   613   614    1
   512   613   618    1
   513   614   615    1
   514   614   616    1
   515   614   617    1
   516   619   620    1
   517   619   624    1
   518   620   621    1
   519   620   622    1
   520   620   623    1
   521   625   626    1
   522   625   630    1
   523   626   627    1
   524   626   628    1
   525   626   629    1
   526   631   632    1
   527   631   636    1
   528   632   633    1
   529   632   634    1
   530   632   635    1
   531   637   638    1
   532   637   642    1
   533   638   639    1
   534   638   640    1
   535   638   641    1
   536   643   644    1
   537   643   648    1
   538   644   645    1
   539   644   646    1
   540   644   647    1
   541   649   650    1
   542   649   654    1
   543   650   651    1
   544   650   652    1
   545   650   653    1
   546   655   656    1
   547   655   660    1
   548   656   657    1
   549   656   658    1
   550   656   659    1
   551   661   662    1
   552   661   666    1
   553   662   663    1
   554   662   664    1
   555   662   665    1
   556   667   668    1
   557   667   672    1
   558   668   669    1
   559   668   670    1
   560   668   671    1
   561   673   674    1
   562   673   678    1
   563   674   675    1
   564   674   676    1
   565   674   677    1
   566   679   680    1
   567   679   684    1
   568   680   681    1
   569   680   682    1
   570   680   683    1
   571   685   686    1
   572   685   690    1
   573   686   687    1
   574   686   688    1
   575   686   689    1
   576   691   692    1
   577   691   696    1
   578   692   693    1
   579   692   694    1
   580   692   695    1
   581   697   698    1
   582   697   702    1
   583   698   699    1
   584   698   700    1
   585   698   701    1
   586   703   704    1
   587   703   708    1
   588   704   705    1
   589   704   706    1
   590   704   707    1
   591   709   710    1
   592   709   714    1
   593   710   711    1
   594   710   712    1
   595   710   713    1
   596   715   716    1
   597   715   720    1
   598   716   717    1
   599   716   718    1
   600   716   719    1
   601   721   722    1
   602   721   726    1
   603   722   723    1
   604   722   724    1
   605   722   725    1
   606   727   728    1
   607   727   732    1
   608   728   729    1
   609   728   730    1
   610   728   731    1
   611   733   734    1
   612   733   738    1
   613   734   735    1
   614   734   736    1
   615   734   737    1
   616   739   740    1
   617   739   744    1
   618   740   741    1
   619   740   742    1
   620   740   743    1
   621   745   746    1
   622   745   750    1
   623   746   747    1
   624   746   748    1
   625   746   749    1
   626   751   752    1
   627   751   756    1
   628   752   753    1
   629   752   754    1
   630   752   755    1
   631   757   758    1
   632   757   762    1
   633   758   759    1
   634   758   760    1
   635   758   761    1
   636   763   764    1
   637   763   768    1
   638   764   765    1
   639   764   766    1
   640   764   767    1
   641   769   770    1
   642   769   774    1
   643   770   771    1
   644   770   772    1
   645   770   773    1
   646   775   776    1
   647   775   780    1
   648   776   777    1
   649   776   778    1
   650   776   779    1
   651   781   782    1
   652   781   786    1
   653   782   783    1
   654   782   784    1
   655   782   785    1
   656   787   788    1
   657   787   792    1
   658   788   789    1
   659   788   790    1
   660   788   791    1
   661   793   794    1
   662   793   798    1
   663   794   795    1
   664   794   796    1
   665   794   797    1
   666   799   800    1
   667   799   804    1
   668   800   801    1
   669   800   802    1
   670   800   803    1
   671   805   806    1
   672   805   810    1
   673   806   807    1
   674   806   808    1
   675   806   809    1
   676   811   812    1
   677   811   816    1
   678   812   813    1
   679   812   814    1
   680   812   815    1
   681   817   818    1
   682   817   822    1
   683   818   819    1
   684   818   820    1
   685   818   821    1
   686   823   824    1
   687   823   828    1
   688   824   825    1
   689   824   826    1
   690   824   827    1
   691   829   830    1
   692   829   834    1
   693   830   831    1
   694   830   832    1
   695   830   833    1
   696   835   836    1
   697   835   840    1
   698   836   837    1
   699   836   838    1
   700   836   839    1
   701   841   842    1
   702   841   846    1
   703   842   843    1
   704   842   844    1
   705   842   845    1
   706   847   848    1
   707   847   852    1
   708   848   849    1
   709   848   850    1
   710   848   851    1
   711   853   854    1
   712   853   858    1
   713   854   855    1
   714   854   856    1
   715   854   857    1
   716   859   860    1
   717   859   864    1
   718   860   861    1
   719   860   862    1
   720   860   863    1
   721   865   866    1
   722   865   870    1
   723   866   867    1
   724   866   868    1
   725   866   869    1
   726   871   872    1
   727   871   876    1
   728   872   873    1
   729   872   874    1
   730   872   875    1
   731   877   878    1
   732   877   882    1
   733   878   879    1
   734   878   880    1
   735   878   881    1
   736   883   884    1
   737   883   888    1
   738   884   885    1
   739   884   886    1
   740   884   887    1
   741   889   890    1
   742   889   894    1
   743   890   891    1
   744   890   892    1
   745   890   893    1
   746   895   896    1
   747   895   900    1
   748   896   897    1
   749   896   898    1
   750   896   899    1
   751   901   902    1
   752   901   906    1
   753   902   903    1
   754   902   904    1
   755   902   905    1
   756   907   908    1
   757   907   912    1
   758   908   909    1
   759   908   910    1
   760   908   911    1
   761   913   914    1
   762   913   918    1
   763   914   915    1
   764   914   916    1
   765   914   917    1
   766   919   920    1
   767   919   924    1
   768   920   921    1
   769   920   922    1
   770   920   923    1
   771   925   926    1
   772   925   930    1
   773   926   927    1
   774   926   928    1
   775   926   929    1
   776   931   932    1
   777   931   936    1
   778   932   933    1
   779   932   934    1
   780   932   935    1
   781   937   938    1
   782   937   942    1
   783   938   939    1
   784   938   940    1
   785   938   941    1
   786   943   944    1
   787   943   948    1
   788   944   945    1
   789   944   946    1
   790   944   947    1
   791   949   950    1
   792   949   954    1
   793   950   951    1
   794   950   952    1
   795   950   953    1
   796   955   956    1
   797   955   960    1
   798   956   957    1
   799   956   958    1
   800   956   959    1
   801   961   962    1
   802   961   966    1
   803   962   963    1
   804   962   964    1
   805   962   965    1
   806   967   968    1
   807   967   972    1
   808   968   969    1
   809   968   970    1
   810   968   971    1
   811   973   974    1
   812   973   978    1
   813   974   975    1
   814   974   976    1
   815   974   977    1
   816   979   980    1
   817   979   984    1
   818   980   981    1
   819   980   982    1
   820   980   983    1
   821   985   986    1
   822   985   990    1
   823   986   987    1
   824   986   988    1
   825   986   989    1
   826   991   992    1
   827   991   996    1
   828   992   993    1
   829   992   994    1
   830   992   995    1
   831   997   998    1
   832   997  1002    1
   833   998   999    1
   834   998  1000    1
   835   998  1001    1
   836  1003  1004    1
   837  1003  1008    1
   838  1004  1005    1
   839  1004  1006    1
   840  1004  1007    1
   841  1009  1010    1
   842  1009  1014    1
   843  1010  1011    1
   844  1010  1012    1
   845  1010  1013    1
   846  1015  1016    1
   847  1015  1020    1
   848  1016  1017    1
   849  1016  1018    1
   850  1016  1019    1
   851  1021  1022    1
   852  1021  1026    1
   853  1022  1023    1
   854  1022  1024    1
   855  1022  1025    1
   856  1027  1028    1
   857  1027  1032    1
   858  1028  1029    1
   859  1028  1030    1
   860  1028  1031    1
   861  1033  1034    1
   862  1033  1038    1
   863  1034  1035    1
   864  1034  1036    1
   865  1034  1037    1
   866  1039  1040    1
   867  1039  1044    1
   868  1040  1041    1
   869  1040  1042    1
   870  1040  1043    1
   871  1045  1046    1
   872  1045  1050    1
   873  1046  1047    1
   874  1046  1048    1
   875  1046  1049    1
   876  1051  1052    1
   877  1051  1056    1
   878  1052  1053    1
   879  1052  1054    1
   880  1052  1055    1
   881  1057  1058    1
   882  1057  1062    1
   883  1058  1059    1
   884  1058  1060    1
   885  1058  1061    1
   886  1063  1064    1
   887  1063  1068    1
   888  1064  1065    1
   889  1064  1066    1
   890  1064  1067    1
   891  1069  1070    1
   892  1069  1074    1
   893  1070  1071    1
   894  1070  1072    1
   895  1070  1073    1
   896  1075  1076    1
   897  1075  1080    1
   898  1076  1077    1
   899  1076  1078    1
   900  1076  1079    1
   901  1081  1082    1
   902  1081  1086    1
   903  1082  1083    1
   904  1082  1084    1
   905  1082  1085    1
   906  1087  1088    1
   907  1087  1092    1
   908  1088  1089    1
   909  1088  1090    1
   910  1088  1091    1
   911  1093  1094    1
   912  1093  1098    1
   913  1094  1095    1
   914  1094  1096    1
   915  1094  1097    1
   916  1099  1100    1
   917  1099  1104    1
   918  1100  1101    1
   919  1100  1102    1
   920  1100  1103    1
   921  1105  1106    1
   922  1105  1110    1
   923  1106  1107    1
   924  1106  1108    1
   925  1106  1109    1
   926  1111  1112    1
   927  1111  1116    1
   928  1112  1113    1
   929  1112  1114    1
   930  1112  1115    1
   931  1117  1118    1
   932  1117  1122    1
   933  1118  1119    1
   934  1118  1120    1
   935  1118  1121    1
   936  1123  1124    1
   937  1123  1128    1
   938  1124  1125    1
   939  1124  1126    1
   940  1124  1127    1
   941  1129  1130    1
   942  1129  1134    1
   943  1130  1131    1
   944  1130  1132    1
   945  1130  1133    1
   946  1135  1136    1
   947  1135  1140    1
   948  1136  1137    1
   949  1136  1138    1
   950  1136  1139    1
   951  1141  1142    1
   952  1141  1146    1
   953  1142  1143    1
   954  1142  1144    1
   955  1142  1145    1
   956  1147  1148    1
   957  1147  1152    1
   958  1148  1149    1
   959  1148  1150    1
   960  1148  1151    1
   961  1153  1154    1
   962  1153  1158    1
   963  1154  1155    1
   964  1154  1156    1
   965  1154  1157    1
   966  1159  1160    1
   967  1159  1164    1
   968  1160  1161    1
   969  1160  1162    1
   970  1160  1163    1
   971  1165  1166    1
   972  1165  1170    1
   973  1166  1167    1
   974  1166  1168    1
   975  1166  1169    1
   976  1171  1172    1
   977  1171  1176    1
   978  1172  1173    1
   979  1172  1174    1
   980  1172  1175    1
   981  1177  1178    1
   982  1177  1182    1
   983  1178  1179    1
   984  1178  1180    1
   985  1178  1181    1
   986  1183  1184    1
   987  1183  1188    1
   988  1184  1185    1
   989  1184  1186    1
   990  1184  1187    1
   991  1189  1190    1
   992  1189  1194    1
   993  1190  1191    1
   994  1190  1192    1
   995  1190  1193    1
   996  1195  1196    1
   997  1195  1200    1
   998  1196  1197    1
   999  1196  1198    1
  1000  1196  1199    1
  1001  1201  1202    1
  1002  1201  1206    1
  1003  1202  1203    1
  1004  1202  1204    1
  1005  1202  1205    1
  1006  1207  1208    1
  1007  1207  1212    1
  1008  1208  1209    1
  1009  1208  1210    1
  1010  1208  1211    1
  1011  1213  1214    1
  1012  1213  1218    1
  1013  1214  1215    1
  1014  1214  1216    1
  1015  1214  1217    1
  1016  1219  1220    1
  1017  1219  1224    1
  1018  1220  1221    1
  1019  1220  1222    1
  1020  1220  1223    1
  1021  1225  1226    1
  1022  1225  1230    1
  1023  1226  1227    1
  1024  1226  1228    1
  1025  1226  1229    1
  1026  1231  1232    1
  1027  1231  1236    1
  1028  1232  1233    1
  1029  1232  1234    1
  1030  1232  1235    1
  1031  1237  1238    1
  1032  1237  1242    1
  1033  1238  1239    1
  1034  1238  1240    1
  1035  1238  1241    1
  1036  1243  1244    1
  1037  1243  1248    1
  1038  1244  1245    1
  1039  1244  1246    1
  1040  1244  1247    1
  1041  1249  1250    1
  1042  1249  1254    1
  1043  1250  1251    1
  1044  1250  1252    1
  1045  1250  1253    1
  1046  1255  1256    1
  1047  1255  1260    1
  1048  1256  1257    1
  1049  1256  1258    1
  1050  1256  1259    1
  1051  1261  1262    1
  1052  1261  1266    1
  1053  1262  1263    1
  1054  1262  1264    1
  1055  1262  1265    1
  1056  1267  1268    1
  1057  1267  1272    1
  1058  1268  1269    1
  1059  1268  1270    1
  1060  1268  1271    1
  1061  1273  1274    1
  1062  1273  1278    1
  1063  1274  1275    1
  1064  1274  1276    1
  1065  1274  1277    1
  1066  1279  1280    1
  1067  1279  1284    1
  1068  1280  1281    1
  1069  1280  1282    1
  1070  1280  1283    1
  1071  1285  1286    1
  1072  1285  1290    1
  1073  1286  1287    1
  1074  1286  1288    1
  1075  1286  1289    1
  1076  1291  1292    1
  1077  1291  1296    1
  1078  1292  1293    1
  1079  1292  1294    1
  1080  1292  1295    1
  1081  1297  1298    1
  1082  1297  1302    1
  1083  1298  1299    1
  1084  1298  1300    1
  1085  1298  1301    1
  1086  1303  1304    1
  1087  1303  1308    1
  1088  1304  1305    1
  1089  1304  1306    1
  1090  1304  1307    1
  1091  1309  1310    1
  1092  1309  1314    1
  1093  1310  1311    1
  1094  1310  1312    1
  1095  1310  1313    1
  1096  1315  1316    1
  1097  1315  1320    1
  1098  1316  1317    1
  1099  1316  1318    1
  1100  1316  1319    1
  1101  1321  1322    1
  1102  1321  1326    1
  1103  1322  1323    1
  1104  1322  1324    1
  1105  1322  1325    1
  1106  1327  1328    1
  1107  1327  1332    1
  1108  1328  1329    1
  1109  1328  1330    1
  1110  1328  1331    1
  1111  1333  1334    1
  1112  1333  1338    1
  1113  1334  1335    1
  1114  1334  1336    1
  1115  1334  1337    1
  1116  1339  1340    1
  1117  1339  1344    1
  1118  1340  1341    1
  1119  1340  1342    1
  1120  1340  1343    1
  1121  1345  1346    1
  1122  1345  1350    1
  1123  1346  1347    1
  1124  1346  1348    1
  1125  1346  1349    1
  1126  1351  1352    1
  1127  1351  1356    1
  1128  1352  1353    1
  1129  1352  1354    1
  1130  1352  1355    1
  1131  1357  1358    1
  1132  1357  1362    1
  1133  1358  1359    1
  1134  1358  1360    1
  1135  1358  1361    1
  1136  1363  1364    1
  1137  1363  1368    1
  1138  1364  1365    1
  1139  1364  1366    1
  1140  1364  1367    1
  1141  1369  1370    1
  1142  1369  1374    1
  1143  1370  1371    1
  1144  1370  1372    1
  1145  1370  1373    1
  1146  1375  1376    1
  1147  1375  1380    1
  1148  1376  1377    1
  1149  1376  1378    1
  1150  1376  1379    1
  1151  1381  1382    1
  1152  1381  1386    1
  1153  1382  1383    1
  1154  1382  1384    1
  1155  1382  1385    1
  1156  1387  1388    1
  1157  1387  1392    1
  1158  1388  1389    1
  1159  1388  1390    1
  1160  1388  1391    1
  1161  1393  1394    1
  1162  1393  1398    1
  1163  1394  1395    1
  1164  1394  1396    1
  1165  1394  1397    1
  1166  1399  1400    1
  1167  1399  1404    1
  1168  1400  1401    1
  1169  1400  1402    1
  1170  1400  1403    1
  1171  1405  1406    1
  1172  1405  1410    1
  1173  1406  1407    1
  1174  1406  1408    1
  1175  1406  1409    1
  1176  1411  1412    1
  1177  1411  1416    1
  1178  1412  1413    1
  1179  1412  1414    1
  1180  1412  1415    1
  1181  1417  1418    1
  1182  1417  1422    1
  1183  1418  1419    1
  1184  1418  1420    1
  1185  1418  1421    1
  1186  1423  1424    1
  1187  1423  1428    1
  1188  1424  1425    1
  1189  1424  1426    1
  1190  1424  1427    1
  1191  1429  1430    1
  1192  1429  1434    1
  1193  1430  1431    1
  1194  1430  1432    1
  1195  1430  1433    1
  1196  1435  1436    1
  1197  1435  1440    1
  1198  1436  1437    1
  1199  1436  1438    1
  1200  1436  1439    1
  1201  1441  1442    1
  1202  1441  1446    1
  1203  1442  1443    1
  1204  1442  1444    1
  1205  1442  1445    1
  1206  1447  1448    1
  1207  1447  1452    1
  1208  1448  1449    1
  1209  1448  1450    1
  1210  1448  1451    1
  1211  1453  1454    1
  1212  1453  1458    1
  1213  1454  1455    1
  1214  1454  1456    1
  1215  1454  1457    1
  1216  1459  1460    1
  1217  1459  1464    1
  1218  1460  1461    1
  1219  1460  1462    1
  1220  1460  1463    1
  1221  1465  1466    1
  1222  1465  1470    1
  1223  1466  1467    1
  1224  1466  1468    1
  1225  1466  1469    1
  1226  1471  1472    1
  1227  1471  1476    1
  1228  1472  1473    1
  1229  1472  1474    1
  1230  1472  1475    1
  1231  1477  1478    1
  1232  1477  1482    1
  1233  1478  1479    1
  1234  1478  1480    1
  1235  1478  1481    1
  1236  1483  1484    1
  1237  1483  1488    1
  1238  1484  1485    1
  1239  1484  1486    1
  1240  1484  1487    1
  1241  1489  1490    1
  1242  1489  1494    1
  1243  1490  1491    1
  1244  1490  1492    1
  1245  1490  1493    1
  1246  1495  1496    1
  1247  1495  1500    1
  1248  1496  1497    1
  1249  1496  1498    1
  1250  1496  1499    1
  1251  1501  1502    1
  1252  1501  1506    1
  1253  1502  1503    1
  1254  1502  1504    1
  1255  1502  1505    1
  1256  1507  1508    1
  1257  1507  1512    1
  1258  1508  1509    1
  1259  1508  1510    1
  1260  1508  1511    1
  1261  1513  1514    1
  1262  1513  1518    1
  1263  1514  1515    1
  1264  1514  1516    1
  1265  1514  1517    1
  1266  1519  1520    1
  1267  1519  1524    1
  1268  1520  1521    1
  1269  1520  1522    1
  1270  1520  1523    1
  1271  1525  1526    1
  1272  1525  1530    1
  1273  1526  1527    1
  1274  1526  1528    1
  1275  1526  1529    1
  1276  1531  1532    1
  1277  1531  1536    1
  1278  1532  1533    1
  1279  1532  1534    1
  1280  1532  1535    1
  1281  1537  1538    1
  1282  1537  1542    1
  1283  1538  1539    1
  1284  1538  1540    1
  1285  1538  1541    1
  1286  1543  1544    1
  1287  1543  1548    1
  1288  1544  1545    1
  1289  1544  1546    1
  1290  1544  1547    1
  1291  1549  1550    1
  1292  1549  1554    1
  1293  1550  1551    1
  1294  1550  1552    1
  1295  1550  1553    1
  1296  1555  1556    1
  1297  1555  1560    1
  1298  1556  1557    1
  1299  1556  1558    1
  1300  1556  1559    1
  1301  1561  1562    1
  1302  1561  1566    1
  1303  1562  1563    1
  1304  1562  1564    1
  1305  1562  1565    1
  1306  1567  1568    1
  1307  1567  1572    1
  1308  1568  1569    1
  1309  1568  1570    1
  1310  1568  1571    1
  1311  1573  1574    1
  1312  1573  1578    1
  1313  1574  1575    1
  1314  1574  1576    1
  1315  1574  1577    1
  1316  1579  1580    1
  1317  1579  1584    1
  1318  1580  1581    1
  1319  1580  1582    1
  1320  1580  1583    1
  1321  1585  1586    1
  1322  1585  1590    1
  1323  1586  1587    1
  1324  1586  1588    1
  1325  1586  1589    1
  1326  1591  1592    1
  1327  1591  1596    1
  1328  1592  1593    1
  1329  1592  1594    1
  1330  1592  1595    1
  1331  1597  1598    1
  1332  1597  1602    1
  1333  1598  1599    1
  1334  1598  1600    1
  1335  1598  1601    1
  1336  1603  1604    1
  1337  1603  1608    1
  1338  1604  1605    1
  1339  1604  1606    1
  1340  1604  1607    1
  1341  1609  1610    1
  1342  1609  1614    1
  1343  1610  1611    1
  1344  1610  1612    1
  1345  1610  1613    1
  1346  1615  1616    1
  1347  1615  1620    1
  1348  1616  1617    1
  1349  1616  1618    1
  1350  1616  1619    1
  1351  1621  1622    1
  1352  1621  1626    1
  1353  1622  1623    1
  1354  1622  1624    1
  1355  1622  1625    1
  1356  1627  1628    1
  1357  1627  1632    1
  1358  1628  1629    1
  1359  1628  1630    1
  1360  1628  1631    1
  1361  1633  1634    1
  1362  1633  1638    1
  1363  1634  1635    1
  1364  1634  1636    1
  1365  1634  1637    1
  1366  1639  1640    1
  1367  1639  1644    1
  1368  1640  1641    1
  1369  1640  1642    1
  1370  1640  1643    1
  1371  1645  1646    1
  1372  1645  1650    1
  1373  1646  1647    1
  1374  1646  1648    1
  1375  1646  1649    1
  1376  1651  1652    1
  1377  1651  1656    1
  1378  1652  1653    1
  1379  1652  1654    1
  1380  1652  1655    1
  1381  1657  1658    1
  1382  1657  1662    1
  1383  1658  1659    1
  1384  1658  1660    1
  1385  1658  1661    1
  1386  1663  1664    1
  1387  1663  1668    1
  1388  1664  1665    1
  1389  1664  1666    1
  1390  1664  1667    1
  1391  1669  1670    1
  1392  1669  1674    1
  1393  1670  1671    1
  1394  1670  1672    1
  1395  1670  1673    1
  1396  1675  1676    1
  1397  1675  1680    1
  1398  1676  1677    1
  1399  1676  1678    1
  1400  1676  1679    1
  1401  1681  1682    1
  1402  1681  1686    1
  1403  1682  1683    1
  1404  1682  1684    1
  1405  1682  1685    1
  1406  1687  1688    1
  1407  1687  1692    1
  1408  1688  1689    1
  1409  1688  1690    1
  1410  1688  1691    1
  1411  1693  1694    1
  1412  1693  1698    1
  1413  1694  1695    1
  1414  1694  1696    1
  1415  1694  1697    1
  1416  1699  1700    1
  1417  1699  1704    1
  1418  1700  1701    1
  1419  1700  1702    1
  1420  1700  1703    1
  1421  1705  1706    1
  1422  1705  1710    1
  1423  1706  1707    1
  1424  1706  1708    1
  1425  1706  1709    1
  1426  1711  1712    1
  1427  1711  1716    1
  1428  1712  1713    1
  1429  1712  1714    1
  1430  1712  1715    1
  1431  1717  1718    1
  1432  1717  1722    1
  1433  1718  1719    1
  1434  1718  1720    1
  1435  1718  1721    1
  1436  1723  1724    1
  1437  1723  1728    1
  1438  1724  1725    1
  1439  1724  1726    1
  1440  1724  1727    1
  1441  1729  1730    1
  1442  1729  1734    1
  1443  1730  1731    1
  1444  1730  1732    1
  1445  1730  1733    1
  1446  1735  1736    1
  1447  1735  1740    1
  1448  1736  1737    1
  1449  1736  1738    1
  1450  1736  1739    1
  1451  1741  1742    1
  1452  1741  1746    1
  1453  1742  1743    1
  1454  1742  1744    1
  1455  1742  1745    1
  1456  1747  1748    1
  1457  1747  1752    1
  1458  1748  1749    1
  1459  1748  1750    1
  1460  1748  1751    1
  1461  1753  1754    1
  1462  1753  1758    1
  1463  1754  1755    1
  1464  1754  1756    1
  1465  1754  1757    1
  1466  1759  1760    1
  1467  1759  1764    1
  1468  1760  1761    1
  1469  1760  1762    1
  1470  1760  1763    1
  1471  1765  1766    1
  1472  1765  1770    1
  1473  1766  1767    1
  1474  1766  1768    1
  1475  1766  1769    1
  1476  1771  1772    1
  1477  1771  1776    1
  1478  1772  1773    1
  1479  1772  1774    1
  1480  1772  1775    1
  1481  1777  1778    1
  1482  1777  1782    1
  1483  1778  1779    1
  1484  1778  1780    1
  1485  1778  1781    1
  1486  1783  1784    1
  1487  1783  1788    1
  1488  1784  1785    1
  1489  1784  1786    1
  1490  1784  1787    1
  1491  1789  1790    1
  1492  1789  1794    1
  1493  1790  1791    1
  1494  1790  1792    1
  1495  1790  1793    1
  1496  1795  1796    1
  1497  1795  1800    1
  1498  1796  1797    1
  1499  1796  1798    1
  1500  1796  1799    1
  1501  1801  1802    1
  1502  1801  1806    1
  1503  1802  1803    1
  1504  1802  1804    1
  1505  1802  1805    1
  1506  1807  1808    1
  1507  1807  1812    1
  1508  1808  1809    1
  1509  1808  1810    1
  1510  1808  1811    1
  1511  1813  1814    1
  1512  1813  1818    1
  1513  1814  1815    1
  1514  1814  1816    1
  1515  1814  1817    1
  1516  1819  1820    1
  1517  1819  1824    1
  1518  1820  1821    1
  1519  1820  1822    1
  1520  1820  1823    1
  1521  1825  1826    1
  1522  1825  1830    1
  1523  1826  1827    1
  1524  1826  1828    1
  1525  1826  1829    1
  1526  1831  1832    1
  1527  1831  1836    1
  1528  1832  1833    1
  1529  1832  1834    1
  1530  1832  1835    1
  1531  1837  1838    1
  1532  1837  1842    1
  1533  1838  1839    1
  1534  1838  1840    1
  1535  1838  1841    1
  1536  1843  1844    1
  1537  1843  1848    1
  1538  1844  1845    1
  1539  1844  1846    1
  1540  1844  1847    1
  1541  1849  1850    1
  1542  1849  1854    1
  1543  1850  1851    1
  1544  1850  1852    1
  1545  1850  1853    1
  1546  1855  1856    1
  1547  1855  1860    1
  1548  1856  1857    1
  1549  1856  1858    1
  1550  1856  1859    1
  1551  1861  1862    1
  1552  1861  1866    1
  1553  1862  1863    1
  1554  1862  1864    1
  1555  1862  1865    1
  1556  1867  1868    1
  1557  1867  1872    1
  1558  1868  1869    1
  1559  1868  1870    1
  1560  1868  1871    1
  1561  1873  1874    1
  1562  1873  1878    1
  1563  1874  1875    1
  1564  1874  1876    1
  1565  1874  1877    1
  1566  1879  1880    1
  1567  1879  1884    1
  1568  1880  1881    1
  1569  1880  1882    1
  1570  1880  1883    1
  1571  1885  1886    1
  1572  1885  1890    1
  1573  1886  1887    1
  1574  1886  1888    1
  1575  1886  1889    1
  1576  1891  1892    1
  1577  1891  1896    1
  1578  1892  1893    1
  1579  1892  1894    1
  1580  1892  1895    1
  1581  1897  1898    1
  1582  1897  1902    1
  1583  1898  1899    1
  1584  1898  1900    1
  1585  1898  1901    1
  1586  1903  1904    1
  1587  1903  1908    1
  1588  1904  1905    1
  1589  1904  1906    1
  1590  1904  1907    1
  1591  1909  1910    1
  1592  1909  1914    1
  1593  1910  1911    1
  1594  1910  1912    1
  1595  1910  1913    1
  1596  1915  1916    1
  1597  1915  1920    1
  1598  1916  1917    1
  1599  1916  1918    1
  1600  1916  1919    1
  1601  1921  1922    1
  1602  1921  1926    1
  1603  1922  1923    1
  1604  1922  1924    1
  1605  1922  1925    1
  1606  1927  1928    1
  1607  1927  1932    1
  1608  1928  1929    1
  1609  1928  1930    1
  1610  1928  1931    1
  1611  1933  1934    1
  1612  1933  1938    1
  1613  1934  1935    1
  1614  1934  1936    1
  1615  1934  1937    1
  1616  1939  1940    1
  1617  1939  1944    1
  1618  1940  1941    1
  1619  1940  1942    1
  1620  1940  1943    1
  1621  1945  1946    1
  1622  1945  1950    1
  1623  1946  1947    1
  1624  1946  1948    1
  1625  1946  1949    1
  1626  1951  1952    1
  1627  1951  1956    1
  1628  1952  1953    1
  1629  1952  1954    1
  1630  1952  1955    1
  1631  1957  1958    1
  1632  1957  1962    1
  1633  1958  1959    1
  1634  1958  1960    1
  1635  1958  1961    1
  1636  1963  1964    1
  1637  1963  1968    1
  1638  1964  1965    1
  1639  1964  1966    1
  1640  1964  1967    1
  1641  1969  1970    1
  1642  1969  1974    1
  1643  1970  1971    1
  1644  1970  1972    1
  1645  1970  1973    1
  1646  1975  1976    1
  1647  1975  1980    1
  1648  1976  1977    1
  1649  1976  1978    1
  1650  1976  1979    1
  1651  1981  1982    1
  1652  1981  1986    1
  1653  1982  1983    1
  1654  1982  1984    1
  1655  1982  1985    1
  1656  1987  1988    1
  1657  1987  1992    1
  1658  1988  1989    1
  1659  1988  1990    1
  1660  1988  1991    1
  1661  1993  1994    1
  1662  1993  1998    1
  1663  1994  1995    1
  1664  1994  1996    1
  1665  1994  1997    1
  1666  1999  2000    1
  1667  1999  2004    1
  1668  2000  2001    1
  1669  2000  2002    1
  1670  2000  2003    1
  1671  2005  2006    1
  1672  2005  2010    1
  1673  2006  2007    1
  1674  2006  2008    1
  1675  2006  2009    1
  1676  2011  2012    1
  1677  2011  2016    1
  1678  2012  2013    1
  1679  2012  2014    1
  1680  2012  2015    1
  1681  2017  2018    1
  1682  2017  2022    1
  1683  2018  2019    1
  1684  2018  2020    1
  1685  2018  2021    1
  1686  2023  2024    1
  1687  2023  2028    1
  1688  2024  2025    1
  1689  2024  2026    1
  1690  2024  2027    1
  1691  2029  2030    1
  1692  2029  2034    1
  1693  2030  2031    1
  1694  2030  2032    1
  1695  2030  2033    1
  1696  2035  2036    1
  1697  2035  2040    1
  1698  2036  2037    1
  1699  2036  2038    1
  1700  2036  2039    1
  1701  2041  2042    1
  1702  2041  2046    1
  1703  2042  2043    1
  1704  2042  2044    1
  1705  2042  2045    1
  1706  2047  2048    1
  1707  2047  2052    1
  1708  2048  2049    1
  1709  2048  2050    1
  1710  2048  2051    1
  1711  2053  2054    1
  1712  2053  2058    1
  1713  2054  2055    1
  1714  2054  2056    1
  1715  2054  2057    1
  1716  2059  2060    1
  1717  2059  2064    1
  1718  2060  2061    1
  1719  2060  2062    1
  1720  2060  2063    1
  1721  2065  2066    1
  1722  2065  2070    1
  1723  2066  2067    1
  1724  2066  2068    1
  1725  2066  2069    1
  1726  2071  2072    1
  1727  2071  2076    1
  1728  2072  2073    1
  1729  2072  2074    1
  1730  2072  2075    1
  1731  2077  2078    1
  1732  2077  2082    1
  1733  2078  2079    1
  1734  2078  2080    1
  1735  2078  2081    1
  1736  2083  2084    1
  1737  2083  2088    1
  1738  2084  2085    1
  1739  2084  2086    1
  1740  2084  2087    1
  1741  2089  2090    1
  1742  2089  2094    1
  1743  2090  2091    1
  1744  2090  2092    1
  1745  2090  2093    1
  1746  2095  2096    1
  1747  2095  2100    1
  1748  2096  2097    1
  1749  2096  2098    1
  1750  2096  2099    1
  1751  2101  2102    1
  1752  2101  2106    1
  1753  2102  2103    1
  1754  2102  2104    1
  1755  2102  2105    1
  1756  2107  2108    1
  1757  2107  2112    1
  1758  2108  2109    1
  1759  2108  2110    1
  1760  2108  2111    1
  1761  2113  2114    1
  1762  2113  2118    1
  1763  2114  2115    1
  1764  2114  2116    1
  1765  2114  2117    1
  1766  2119  2120    1
  1767  2119  2124    1
  1768  2120  2121    1
  1769  2120  2122    1
  1770  2120  2123    1
  1771  2125  2126    1
  1772  2125  2130    1
  1773  2126  2127    1
  1774  2126  2128    1
  1775  2126  2129    1
  1776  2131  2132    1
  1777  2131  2136    1
  1778  2132  2133    1
  1779  2132  2134    1
  1780  2132  2135    1
  1781  2137  2138    1
  1782  2137  2142    1
  1783  2138  2139    1
  1784  2138  2140    1
  1785  2138  2141    1
  1786  2143  2144    1
  1787  2143  2148    1
  1788  2144  2145    1
  1789  2144  2146    1
  1790  2144  2147    1
  1791  2149  2150    1
  1792  2149  2154    1
  1793  2150  2151    1
  1794  2150  2152    1
  1795  2150  2153    1
  1796  2155  2156    1
  1797  2155  2160    1
  1798  2156  2157    1
  1799  2156  2158    1
  1800  2156  2159    1
  1801  2161  2162    1
  1802  2161  2166    1
  1803  2162  2163    1
  1804  2162  2164    1
  1805  2162  2165    1
  1806  2167  2168    1
  1807  2167  2172    1
  1808  2168  2169    1
  1809  2168  2170    1
  1810  2168  2171    1
  1811  2173  2174    1
  1812  2173  2178    1
  1813  2174  2175    1
  1814  2174  2176    1
  1815  2174  2177    1
  1816  2179  2180    1
  1817  2179  2184    1
  1818  2180  2181    1
  1819  2180  2182    1
  1820  2180  2183    1
  1821  2185  2186    1
  1822  2185  2190    1
  1823  2186  2187    1
  1824  2186  2188    1
  1825  2186  2189    1
  1826  2191  2192    1
  1827  2191  2196    1
  1828  2192  2193    1
  1829  2192  2194    1
  1830  2192  2195    1
  1831  2197  2198    1
  1832  2197  2202    1
  1833  2198  2199    1
  1834  2198  2200    1
  1835  2198  2201    1
  1836  2203  2204    1
  1837  2203  2208    1
  1838  2204  2205    1
  1839  2204  2206    1
  1840  2204  2207    1
  1841  2209  2210    1
  1842  2209  2214    1
  1843  2210  2211    1
  1844  2210  2212    1
  1845  2210  2213    1
  1846  2215  2216    1
  1847  2215  2220    1
  1848  2216  2217    1
  1849  2216  2218    1
  1850  2216  2219    1
  1851  2221  2222    1
  1852  2221  2226    1
  1853  2222  2223    1
  1854  2222  2224    1
  1855  2222  2225    1
  1856  2227  2228    1
  1857  2227  2232    1
  1858  2228  2229    1
  1859  2228  2230    1
  1860  2228  2231    1
  1861  2233  2234    1
  1862  2233  2238    1
  1863  2234  2235    1
  1864  2234  2236    1
  1865  2234  2237    1
  1866  2239  2240    1
  1867  2239  2244    1
  1868  2240  2241    1
  1869  2240  2242    1
  1870  2240  2243    1
  1871  2245  2246    1
  1872  2245  2250    1
  1873  2246  2247    1
  1874  2246  2248    1
  1875  2246  2249    1
  1876  2251  2252    1
  1877  2251  2256    1
  1878  2252  2253    1
  1879  2252  2254    1
  1880  2252  2255    1
  1881  2257  2258    1
  1882  2257  2262    1
  1883  2258  2259    1
  1884  2258  2260    1
  1885  2258  2261    1
  1886  2263  2264    1
  1887  2263  2268    1
  1888  2264  2265    1
  1889  2264  2266    1
  1890  2264  2267    1
  1891  2269  2270    1
  1892  2269  2274    1
  1893  2270  2271    1
  1894  2270  2272    1
  1895  2270  2273    1
  1896  2275  2276    1
  1897  2275  2280    1
  1898  2276  2277    1
  1899  2276  2278    1
  1900  2276  2279    1
  1901  2281  2282    1
  1902  2281  2286    1
  1903  2282  2283    1
  1904  2282  2284    1
  1905  2282  2285    1
  1906  2287  2288    1
  1907  2287  2292    1
  1908  2288  2289    1
  1909  2288  2290    1
  1910  2288  2291    1
  1911  2293  2294    1
  1912  2293  2298    1
  1913  2294  2295    1
  1914  2294  2296    1
  1915  2294  2297    1
  1916  2299  2300    1
  1917  2299  2304    1
  1918  2300  2301    1
  1919  2300  2302    1
  1920  2300  2303    1
  1921  2305  2306    1
  1922  2305  2310    1
  1923  2306  2307    1
  1924  2306  2308    1
  1925  2306  2309    1
  1926  2311  2312    1
  1927  2311  2316    1
  1928  2312  2313    1
  1929  2312  2314    1
  1930  2312  2315    1
  1931  2317  2318    1
  1932  2317  2322    1
  1933  2318  2319    1
  1934  2318  2320    1
  1935  2318  2321    1
  1936  2323  2324    1
  1937  2323  2328    1
  1938  2324  2325    1
  1939  2324  2326    1
  1940  2324  2327    1
  1941  2329  2330    1
  1942  2329  2334    1
  1943  2330  2331    1
  1944  2330  2332    1
  1945  2330  2333    1
  1946  2335  2336    1
  1947  2335  2340    1
  1948  2336  2337    1
  1949  2336  2338    1
  1950  2336  2339    1
  1951  2341  2342    1
  1952  2341  2346    1
  1953  2342  2343    1
  1954  2342  2344    1
  1955  2342  2345    1
  1956  2347  2348    1
  1957  2347  2352    1
  1958  2348  2349    1
  1959  2348  2350    1
  1960  2348  2351    1
  1961  2353  2354    1
  1962  2353  2358    1
  1963  2354  2355    1
  1964  2354  2356    1
  1965  2354  2357    1
  1966  2359  2360    1
  1967  2359  2364    1
  1968  2360  2361    1
  1969  2360  2362    1
  1970  2360  2363    1
  1971  2365  2366    1
  1972  2365  2370    1
  1973  2366  2367    1
  1974  2366  2368    1
  1975  2366  2369    1
  1976  2371  2372    1
  1977  2371  2376    1
  1978  2372  2373    1
  1979  2372  2374    1
  1980  2372  2375    1
  1981  2377  2378    1
  1982  2377  2382    1
  1983  2378  2379    1
  1984  2378  2380    1
  1985  2378  2381    1
  1986  2383  2384    1
  1987  2383  2388    1
  1988  2384  2385    1
  1989  2384  2386    1
  1990  2384  2387    1
  1991  2389  2390    1
  1992  2389  2394    1
  1993  2390  2391    1
  1994  2390  2392    1
  1995  2390  2393    1
  1996  2395  2396    1
  1997  2395  2400    1
  1998  2396  2397    1
  1999  2396  2398    1
  2000  2396  2399    1
  2001  2401  2402    1
  2002  2401  2406    1
  2003  2402  2403    1
  2004  2402  2404    1
  2005  2402  2405    1
  2006  2407  2408    1
  2007  2407  2412    1
  2008  2408  2409    1
  2009  2408  2410    1
  2010  2408  2411    1
  2011  2413  2414    1
  2012  2413  2418    1
  2013  2414  2415    1
  2014  2414  2416    1
  2015  2414  2417    1
  2016  2419  2420    1
  2017  2419  2424    1
  2018  2420  2421    1
  2019  2420  2422    1
  2020  2420  2423    1
  2021  2425  2426    1
  2022  2425  2430    1
  2023  2426  2427    1
  2024  2426  2428    1
  2025  2426  2429    1
  2026  2431  2432    1
  2027  2431  2436    1
  2028  2432  2433    1
  2029  2432  2434    1
  2030  2432  2435    1
  2031  2437  2438    1
  2032  2437  2442    1
  2033  2438  2439    1
  2034  2438  2440    1
  2035  2438  2441    1
  2036  2443  2444    1
  2037  2443  2448    1
  2038  2444  2445    1
  2039  2444  2446    1
  2040  2444  2447    1
  2041  2449  2450    1
  2042  2449  2454    1
  2043  2450  2451    1
  2044  2450  2452    1
  2045  2450  2453    1
  2046  2455  2456    1
  2047  2455  2460    1
  2048  2456  2457    1
  2049  2456  2458    1
  2050  2456  2459    1
  2051  2461  2462    1
  2052  2461  2466    1
  2053  2462  2463    1
  2054  2462  2464    1
  2055  2462  2465    1
  2056  2467  2468    1
  2057  2467  2472    1
  2058  2468  2469    1
  2059  2468  2470    1
  2060  2468  2471    1
  2061  2473  2474    1
  2062  2473  2478    1
  2063  2474  2475    1
  2064  2474  2476    1
  2065  2474  2477    1
  2066  2479  2480    1
  2067  2479  2484    1
  2068  2480  2481    1
  2069  2480  2482    1
  2070  2480  2483    1
  2071  2485  2486    1
  2072  2485  2490    1
  2073  2486  2487    1
  2074  2486  2488    1
  2075  2486  2489    1
  2076  2491  2492    1
  2077  2491  2496    1
  2078  2492  2493    1
  2079  2492  2494    1
  2080  2492  2495    1
  2081  2497  2498    1
  2082  2497  2502    1
  2083  2498  2499    1
  2084  2498  2500    1
  2085  2498  2501    1
  2086  2503  2504    1
  2087  2503  2508    1
  2088  2504  2505    1
  2089  2504  2506    1
  2090  2504  2507    1
  2091  2509  2510    1
  2092  2509  2514    1
  2093  2510  2511    1
  2094  2510  2512    1
  2095  2510  2513    1
  2096  2515  2516    1
  2097  2515  2520    1
  2098  2516  2517    1
  2099  2516  2518    1
  2100  2516  2519    1
  2101  2521  2522    1
  2102  2521  2526    1
  2103  2522  2523    1
  2104  2522  2524    1
  2105  2522  2525    1
  2106  2527  2528    1
  2107  2527  2532    1
  2108  2528  2529    1
  2109  2528  2530    1
  2110  2528  2531    1
  2111  2533  2534    1
  2112  2533  2538    1
  2113  2534  2535    1
  2114  2534  2536    1
  2115  2534  2537    1
  2116  2539  2540    1
  2117  2539  2544    1
  2118  2540  2541    1
  2119  2540  2542    1
  2120  2540  2543    1
  2121  2545  2546    1
  2122  2545  2550    1
  2123  2546  2547    1
  2124  2546  2548    1
  2125  2546  2549    1
  2126  2551  2552    1
  2127  2551  2556    1
  2128  2552  2553    1
  2129  2552  2554    1
  2130  2552  2555    1
  2131  2557  2558    1
  2132  2557  2562    1
  2133  2558  2559    1
  2134  2558  2560    1
  2135  2558  2561    1
  2136  2563  2564    1
  2137  2563  2568    1
  2138  2564  2565    1
  2139  2564  2566    1
  2140  2564  2567    1
  2141  2569  2570    1
  2142  2569  2574    1
  2143  2570  2571    1
  2144  2570  2572    1
  2145  2570  2573    1
  2146  2575  2576    1
  2147  2575  2580    1
  2148  2576  2577    1
  2149  2576  2578    1
  2150  2576  2579    1
  2151  2581  2582    1
  2152  2581  2586    1
  2153  2582  2583    1
  2154  2582  2584    1
  2155  2582  2585    1
  2156  2587  2588    1
  2157  2587  2592    1
  2158  2588  2589    1
  2159  2588  2590    1
  2160  2588  2591    1
  2161  2593  2594    1
  2162  2593  2598    1
  2163  2594  2595    1
  2164  2594  2596    1
  2165  2594  2597    1
  2166  2599  2600    1
  2167  2599  2604    1
  2168  2600  2601    1
  2169  2600  2602    1
  2170  2600  2603    1
  2171  2605  2606    1
  2172  2605  2610    1
  2173  2606  2607    1
  2174  2606  2608    1
  2175  2606  2609    1
  2176  2611  2612    1
  2177  2611  2616    1
  2178  2612  2613    1
  2179  2612  2614    1
  2180  2612  2615    1
  2181  2617  2618    1
  2182  2617  2622    1
  2183  2618  2619    1
  2184  2618  2620    1
  2185  2618  2621    1
  2186  2623  2624    1
  2187  2623  2628    1
  2188  2624  2625    1
  2189  2624  2626    1
  2190  2624  2627    1
  2191  2629  2630    1
  2192  2629  2634    1
  2193  2630  2631    1
  2194  2630  2632    1
  2195  2630  2633    1
  2196  2635  2636    1
  2197  2635  2640    1
  2198  2636  2637    1
  2199  2636  2638    1
  2200  2636  2639    1
  2201  2641  2642    1
  2202  2641  2646    1
  2203  2642  2643    1
  2204  2642  2644    1
  2205  2642  2645    1
  2206  2647  2648    1
  2207  2647  2652    1
  2208  2648  2649    1
  2209  2648  2650    1
  2210  2648  2651    1
  2211  2653  2654    1
  2212  2653  2658    1
  2213  2654  2655    1
  2214  2654  2656    1
  2215  2654  2657    1
  2216  2659  2660    1
  2217  2659  2664    1
  2218  2660  2661    1
  2219  2660  2662    1
  2220  2660  2663    1
  2221  2665  2666    1
  2222  2665  2670    1
  2223  2666  2667    1
  2224  2666  2668    1
  2225  2666  2669    1
  2226  2671  2672    1
  2227  2671  2676    1
  2228  2672  2673    1
  2229  2672  2674    1
  2230  2672  2675    1
  2231  2677  2678    1
  2232  2677  2682    1
  2233  2678  2679    1
  2234  2678  2680    1
  2235  2678  2681    1
  2236  2683  2684    1
  2237  2683  2688    1
  2238  2684  2685    1
  2239  2684  2686    1
  2240  2684  2687    1
  2241  2689  2690    1
  2242  2689  2694    1
  2243  2690  2691    1
  2244  2690  2692    1
  2245  2690  2693    1
  2246  2695  2696    1
  2247  2695  2700    1
  2248  2696  2697    1
  2249  2696  2698    1
  2250  2696  2699    1
  2251  2701  2702    1
  2252  2701  2706    1
  2253  2702  2703    1
  2254  2702  2704    1
  2255  2702  2705    1
  2256  2707  2708    1
  2257  2707  2712    1
  2258  2708  2709    1
  2259  2708  2710    1
  2260  2708  2711    1
  2261  2713  2714    1
  2262  2713  2718    1
  2263  2714  2715    1
  2264  2714  2716    1
  2265  2714  2717    1
  2266  2719  2720    1
  2267  2719  2724    1
  2268  2720  2721    1
  2269  2720  2722    1
  2270  2720  2723    1
  2271  2725  2726    1
  2272  2725  2730    1
  2273  2726  2727    1
  2274  2726  2728    1
  2275  2726  2729    1
  2276  2731  2732    1
  2277  2731  2736    1
  2278  2732  2733    1
  2279  2732  2734    1
  2280  2732  2735    1
  2281  2737  2738    1
  2282  2737  2742    1
  2283  2738  2739    1
  2284  2738  2740    1
  2285  2738  2741    1
  2286  2743  2744    1
  2287  2743  2748    1
  2288  2744  2745    1
  2289  2744  2746    1
  2290  2744  2747    1
  2291  2749  2750    1
  2292  2749  2754    1
  2293  2750  2751    1
  2294  2750  2752    1
  2295  2750  2753    1
  2296  2755  2756    1
  2297  2755  2760    1
  2298  2756  2757    1
  2299  2756  2758    1
  2300  2756  2759    1
  2301  2761  2762    1
  2302  2761  2766    1
  2303  2762  2763    1
  2304  2762  2764    1
  2305  2762  2765    1
  2306  2767  2768    1
  2307  2767  2772    1
  2308  2768  2769    1
  2309  2768  2770    1
  2310  2768  2771    1
  2311  2773  2774    1
  2312  2773  2778    1
  2313  2774  2775    1
  2314  2774  2776    1
  2315  2774  2777    1
  2316  2779  2780    1
  2317  2779  2784    1
  2318  2780  2781    1
  2319  2780  2782    1
  2320  2780  2783    1
  2321  2785  2786    1
  2322  2785  2790    1
  2323  2786  2787    1
  2324  2786  2788    1
  2325  2786  2789    1
  2326  2791  2792    1
  2327  2791  2796    1
  2328  2792  2793    1
  2329  2792  2794    1
  2330  2792  2795    1
  2331  2797  2798    1
  2332  2797  2802    1
  2333  2798  2799    1
  2334  2798  2800    1
  2335  2798  2801    1
  2336  2803  2804    1
  2337  2803  2808    1
  2338  2804  2805    1
  2339  2804  2806    1
  2340  2804  2807    1
  2341  2809  2810    1
  2342  2809  2814    1
  2343  2810  2811    1
  2344  2810  2812    1
  2345  2810  2813    1
  2346  2815  2816    1
  2347  2815  2820    1
  2348  2816  2817    1
  2349  2816  2818    1
  2350  2816  2819    1
  2351  2821  2822    1
  2352  2821  2826    1
  2353  2822  2823    1
  2354  2822  2824    1
  2355  2822  2825    1
  2356  2827  2828    1
  2357  2827  2832    1
  2358  2828  2829    1
  2359  2828  2830    1
  2360  2828  2831    1
  2361  2833  2834    1
  2362  2833  2838    1
  2363  2834  2835    1
  2364  2834  2836    1
  2365  2834  2837    1
  2366  2839  2840    1
  2367  2839  2844    1
  2368  2840  2841    1
  2369  2840  2842    1
  2370  2840  2843    1
  2371  2845  2846    1
  2372  2845  2850    1
  2373  2846  2847    1
  2374  2846  2848    1
  2375  2846  2849    1
  2376  2851  2852    1
  2377  2851  2856    1
  2378  2852  2853    1
  2379  2852  2854    1
  2380  2852  2855    1
  2381  2857  2858    1
  2382  2857  2862    1
  2383  2858  2859    1
  2384  2858  2860    1
  2385  2858  2861    1
  2386  2863  2864    1
  2387  2863  2868    1
  2388  2864  2865    1
  2389  2864  2866    1
  2390  2864  2867    1
  2391  2869  2870    1
  2392  2869  2874    1
  2393  2870  2871    1
  2394  2870  2872    1
  2395  2870  2873    1
  2396  2875  2876    1
  2397  2875  2880    1
  2398  2876  2877    1
  2399  2876  2878    1
  2400  2876  2879    1
  2401  2881  2882    1
  2402  2881  2886    1
  2403  2882  2883    1
  2404  2882  2884    1
  2405  2882  2885    1
  2406  2887  2888    1
  2407  2887  2892    1
  2408  2888  2889    1
  2409  2888  2890    1
  2410  2888  2891    1
  2411  2893  2894    1
  2412  2893  2898    1
  2413  2894  2895    1
  2414  2894  2896    1
  2415  2894  2897    1
  2416  2899  2900    1
  2417  2899  2904    1
  2418  2900  2901    1
  2419  2900  2902    1
  2420  2900  2903    1
  2421  2905  2906    1
  2422  2905  2910    1
  2423  2906  2907    1
  2424  2906  2908    1
  2425  2906  2909    1
  2426  2911  2912    1
  2427  2911  2916    1
  2428  2912  2913    1
  2429  2912  2914    1
  2430  2912  2915    1
  2431  2917  2918    1
  2432  2917  2922    1
  2433  2918  2919    1
  2434  2918  2920    1
  2435  2918  2921    1
  2436  2923  2924    1
  2437  2923  2928    1
  2438  2924  2925    1
  2439  2924  2926    1
  2440  2924  2927    1
  2441  2929  2930    1
  2442  2929  2934    1
  2443  2930  2931    1
  2444  2930  2932    1
  2445  2930  2933    1
  2446  2935  2936    1
  2447  2935  2940    1
  2448  2936  2937    1
  2449  2936  2938    1
  2450  2936  2939    1
  2451  2941  2942    1
  2452  2941  2946    1
  2453  2942  2943    1
  2454  2942  2944    1
  2455  2942  2945    1
  2456  2947  2948    1
  2457  2947  2952    1
  2458  2948  2949    1
  2459  2948  2950    1
  2460  2948  2951    1
  2461  2953  2954    1
  2462  2953  2958    1
  2463  2954  2955    1
  2464  2954  2956    1
  2465  2954  2957    1
  2466  2959  2960    1
  2467  2959  2964    1
  2468  2960  2961    1
  2469  2960  2962    1
  2470  2960  2963    1
  2471  2965  2966    1
  2472  2965  2970    1
  2473  2966  2967    1
  2474  2966  2968    1
  2475  2966  2969    1
  2476  2971  2972    1
  2477  2971  2976    1
  2478  2972  2973    1
  2479  2972  2974    1
  2480  2972  2975    1
  2481  2977  2978    1
  2482  2977  2982    1
  2483  2978  2979    1
  2484  2978  2980    1
  2485  2978  2981    1
  2486  2983  2984    1
  2487  2983  2988    1
  2488  2984  2985    1
  2489  2984  2986    1
  2490  2984  2987    1
  2491  2989  2990    1
  2492  2989  2994    1
  2493  2990  2991    1
  2494  2990  2992    1
  2495  2990  2993    1
  2496  2995  2996    1
  2497  2995  3000    1
  2498  2996  2997    1
  2499  2996  2998    1
  2500  2996  2999    1
  2501  3001  3002    1
  2502  3001  3006    1
  2503  3002  3003    1
  2504  3002  3004    1
  2505  3002  3005    1
  2506  3007  3008    1
  2507  3007  3012    1
  2508  3008  3009    1
  2509  3008  3010    1
  2510  3008  3011    1
  2511  3013  3014    1
  2512  3013  3018    1
  2513  3014  3015    1
  2514  3014  3016    1
  2515  3014  3017    1
  2516  3019  3020    1
  2517  3019  3024    1
  2518  3020  3021    1
  2519  3020  3022    1
  2520  3020  3023    1
  2521  3025  3026    1
  2522  3025  3030    1
  2523  3026  3027    1
  2524  3026  3028    1
  2525  3026  3029    1
  2526  3031  3032    1
  2527  3031  3036    1
  2528  3032  3033    1
  2529  3032  3034    1
  2530  3032  3035    1
  2531  3037  3038    1
  2532  3037  3042    1
  2533  3038  3039    1
  2534  3038  3040    1
  2535  3038  3041    1
  2536  3043  3044    1
  2537  3043  3048    1
  2538  3044  3045    1
  2539  3044  3046    1
  2540  3044  3047    1
  2541  3049  3050    1
  2542  3049  3054    1
  2543  3050  3051    1
  2544  3050  3052    1
  2545  3050  3053    1
  2546  3055  3056    1
  2547  3055  3060    1
  2548  3056  3057    1
  2549  3056  3058    1
  2550  3056  3059    1
  2551  3061  3062    1
  2552  3061  3066    1
  2553  3062  3063    1
  2554  3062  3064    1
  2555  3062  3065    1
  2556  3067  3068    1
  2557  3067  3072    1
  2558  3068  3069    1
  2559  3068  3070    1
  2560  3068  3071    1
  2561  3073  3074    1
  2562  3073  3078    1
  2563  3074  3075    1
  2564  3074  3076    1
  2565  3074  3077    1
  2566  3079  3080    1
  2567  3079  3084    1
  2568  3080  3081    1
  2569  3080  3082    1
  2570  3080  3083    1
  2571  3085  3086    1
  2572  3085  3090    1
  2573  3086  3087    1
  2574  3086  3088    1
  2575  3086  3089    1
  2576  3091  3092    1
  2577  3091  3096    1
  2578  3092  3093    1
  2579  3092  3094    1
  2580  3092  3095    1
  2581  3097  3098    1
  2582  3097  3102    1
  2583  3098  3099    1
  2584  3098  3100    1
  2585  3098  3101    1
  2586  3103  3104    1
  2587  3103  3108    1
  2588  3104  3105    1
  2589  3104  3106    1
  2590  3104  3107    1
  2591  3109  3110    1
  2592  3109  3114    1
  2593  3110  3111    1
  2594  3110  3112    1
  2595  3110  3113    1
  2596  3115  3116    1
  2597  3115  3120    1
  2598  3116  3117    1
  2599  3116  3118    1
  2600  3116  3119    1
  2601  3121  3122    1
  2602  3121  3126    1
  2603  3122  3123    1
  2604  3122  3124    1
  2605  3122  3125    1
  2606  3127  3128    1
  2607  3127  3132    1
  2608  3128  3129    1
  2609  3128  3130    1
  2610  3128  3131    1
  2611  3133  3134    1
  2612  3133  3138    1
  2613  3134  3135    1
  2614  3134  3136    1
  2615  3134  3137    1
  2616  3139  3140    1
  2617  3139  3144    1
  2618  3140  3141    1
  2619  3140  3142    1
  2620  3140  3143    1
  2621  3145  3146    1
  2622  3145  3150    1
  2623  3146  3147    1
  2624  3146  3148    1
  2625  3146  3149    1
  2626  3151  3152    1
  2627  3151  3156    1
  2628  3152  3153    1
  2629  3152  3154    1
  2630  3152  3155    1
  2631  3157  3158    1
  2632  3157  3162    1
  2633  3158  3159    1
  2634  3158  3160    1
  2635  3158  3161    1
  2636  3163  3164    1
  2637  3163  3168    1
  2638  3164  3165    1
  2639  3164  3166    1
  2640  3164  3167    1
  2641  3169  3170    1
  2642  3169  3174    1
  2643  3170  3171    1
  2644  3170  3172    1
  2645  3170  3173    1
  2646  3175  3176    1
  2647  3175  3180    1
  2648  3176  3177    1
  2649  3176  3178    1
  2650  3176  3179    1
  2651  3181  3182    1
  2652  3181  3186    1
  2653  3182  3183    1
  2654  3182  3184    1
  2655  3182  3185    1
  2656  3187  3188    1
  2657  3187  3192    1
  2658  3188  3189    1
  2659  3188  3190    1
  2660  3188  3191    1
  2661  3193  3194    1
  2662  3193  3198    1
  2663  3194  3195    1
  2664  3194  3196    1
  2665  3194  3197    1
  2666  3199  3200    1
  2667  3199  3204    1
  2668  3200  3201    1
  2669  3200  3202    1
  2670  3200  3203    1
  2671  3205  3206    1
  2672  3205  3210    1
  2673  3206  3207    1
  2674  3206  3208    1
  2675  3206  3209    1
  2676  3211  3212    1
  2677  3211  3216    1
  2678  3212  3213    1
  2679  3212  3214    1
  2680  3212  3215    1
  2681  3217  3218    1
  2682  3217  3222    1
  2683  3218  3219    1
  2684  3218  3220    1
  2685  3218  3221    1
  2686  3223  3224    1
  2687  3223  3228    1
  2688  3224  3225    1
  2689  3224  3226    1
  2690  3224  3227    1
  2691  3229  3230    1
  2692  3229  3234    1
  2693  3230  3231    1
  2694  3230  3232    1
  2695  3230  3233    1
  2696  3235  3236    1
  2697  3235  3240    1
  2698  3236  3237    1
  2699  3236  3238    1
  2700  3236  3239    1
  2701  3241  3242    1
  2702  3241  3246    1
  2703  3242  3243    1
  2704  3242  3244    1
  2705  3242  3245    1
  2706  3247  3248    1
  2707  3247  3252    1
  2708  3248  3249    1
  2709  3248  3250    1
  2710  3248  3251    1
  2711  3253  3254    1
  2712  3253  3258    1
  2713  3254  3255    1
  2714  3254  3256    1
  2715  3254  3257    1
  2716  3259  3260    1
  2717  3259  3264    1
  2718  3260  3261    1
  2719  3260  3262    1
  2720  3260  3263    1
  2721  3265  3266    1
  2722  3265  3270    1
  2723  3266  3267    1
  2724  3266  3268    1
  2725  3266  3269    1
  2726  3271  3272    1
  2727  3271  3276    1
  2728  3272  3273    1
  2729  3272  3274    1
  2730  3272  3275    1
  2731  3277  3278    1
  2732  3277  3282    1
  2733  3278  3279    1
  2734  3278  3280    1
  2735  3278  3281    1
  2736  3283  3284    1
  2737  3283  3288    1
  2738  3284  3285    1
  2739  3284  3286    1
  2740  3284  3287    1
  2741  3289  3290    1
  2742  3289  3294    1
  2743  3290  3291    1
  2744  3290  3292    1
  2745  3290  3293    1
  2746  3295  3296    1
  2747  3295  3300    1
  2748  3296  3297    1
  2749  3296  3298    1
  2750  3296  3299    1
  2751  3301  3302    1
  2752  3301  3306    1
  2753  3302  3303    1
  2754  3302  3304    1
  2755  3302  3305    1
  2756  3307  3308    1
  2757  3307  3312    1
  2758  3308  3309    1
  2759  3308  3310    1
  2760  3308  3311    1
  2761  3313  3314    1
  2762  3313  3318    1
  2763  3314  3315    1
  2764  3314  3316    1
  2765  3314  3317    1
  2766  3319  3320    1
  2767  3319  3324    1
  2768  3320  3321    1
  2769  3320  3322    1
  2770  3320  3323    1
  2771  3325  3326    1
  2772  3325  3330    1
  2773  3326  3327    1
  2774  3326  3328    1
  2775  3326  3329    1
  2776  3331  3332    1
  2777  3331  3336    1
  2778  3332  3333    1
  2779  3332  3334    1
  2780  3332  3335    1
  2781  3337  3338    1
  2782  3337  3342    1
  2783  3338  3339    1
  2784  3338  3340    1
  2785  3338  3341    1
  2786  3343  3344    1
  2787  3343  3348    1
  2788  3344  3345    1
  2789  3344  3346    1
  2790  3344  3347    1
  2791  3349  3350    1
  2792  3349  3354    1
  2793  3350  3351    1
  2794  3350  3352    1
  2795  3350  3353    1
  2796  3355  3356    1
  2797  3355  3360    1
  2798  3356  3357    1
  2799  3356  3358    1
  2800  3356  3359    1
  2801  3361  3362    1
  2802  3361  3366    1
  2803  3362  3363    1
  2804  3362  3364    1
  2805  3362  3365    1
  2806  3367  3368    1
  2807  3367  3372    1
  2808  3368  3369    1
  2809  3368  3370    1
  2810  3368  3371    1
  2811  3373  3374    1
  2812  3373  3378    1
  2813  3374  3375    1
  2814  3374  3376    1
  2815  3374  3377    1
  2816  3379  3380    1
  2817  3379  3384    1
  2818  3380  3381    1
  2819  3380  3382    1
  2820  3380  3383    1
  2821  3385  3386    1
  2822  3385  3390    1
  2823  3386  3387    1
  2824  3386  3388    1
  2825  3386  3389    1
  2826  3391  3392    1
  2827  3391  3396    1
  2828  3392  3393    1
  2829  3392  3394    1
  2830  3392  3395    1
  2831  3397  3398    1
  2832  3397  3402    1
  2833  3398  3399    1
  2834  3398  3400    1
  2835  3398  3401    1
  2836  3403  3404    1
  2837  3403  3408    1
  2838  3404  3405    1
  2839  3404  3406    1
  2840  3404  3407    1
  2841  3409  3410    1
  2842  3409  3414    1
  2843  3410  3411    1
  2844  3410  3412    1
  2845  3410  3413    1
  2846  3415  3416    1
  2847  3415  3420    1
  2848  3416  3417    1
  2849  3416  3418    1
  2850  3416  3419    1
  2851  3421  3422    1
  2852  3421  3426    1
  2853  3422  3423    1
  2854  3422  3424    1
  2855  3422  3425    1
  2856  3427  3428    1
  2857  3427  3432    1
  2858  3428  3429    1
  2859  3428  3430    1
  2860  3428  3431    1
  2861  3433  3434    1
  2862  3433  3438    1
  2863  3434  3435    1
  2864  3434  3436    1
  2865  3434  3437    1
  2866  3439  3440    1
  2867  3439  3444    1
  2868  3440  3441    1
  2869  3440  3442    1
  2870  3440  3443    1
  2871  3445  3446    1
  2872  3445  3450    1
  2873  3446  3447    1
  2874  3446  3448    1
  2875  3446  3449    1
  2876  3451  3452    1
  2877  3451  3456    1
  2878  3452  3453    1
  2879  3452  3454    1
  2880  3452  3455    1
  2881  3457  3458    1
  2882  3457  3462    1
  2883  3458  3459    1
  2884  3458  3460    1
  2885  3458  3461    1
  2886  3463  3464    1
  2887  3463  3468    1
  2888  3464  3465    1
  2889  3464  3466    1
  2890  3464  3467    1
  2891  3469  3470    1
  2892  3469  3474    1
  2893  3470  3471    1
  2894  3470  3472    1
  2895  3470  3473    1
  2896  3475  3476    1
  2897  3475  3480    1
  2898  3476  3477    1
  2899  3476  3478    1
  2900  3476  3479    1
  2901  3481  3482    1
  2902  3481  3486    1
  2903  3482  3483    1
  2904  3482  3484    1
  2905  3482  3485    1
  2906  3487  3488    1
  2907  3487  3492    1
  2908  3488  3489    1
  2909  3488  3490    1
  2910  3488  3491    1
  2911  3493  3494    1
  2912  3493  3498    1
  2913  3494  3495    1
  2914  3494  3496    1
  2915  3494  3497    1
  2916  3499  3500    1
  2917  3499  3504    1
  2918  3500  3501    1
  2919  3500  3502    1
  2920  3500  3503    1
  2921  3505  3506    1
  2922  3505  3510    1
  2923  3506  3507    1
  2924  3506  3508    1
  2925  3506  3509    1
  2926  3511  3512    1
  2927  3511  3516    1
  2928  3512  3513    1
  2929  3512  3514    1
  2930  3512  3515    1
  2931  3517  3518    1
  2932  3517  3522    1
  2933  3518  3519    1
  2934  3518  3520    1
  2935  3518  3521    1
  2936  3523  3524    1
  2937  3523  3528    1
  2938  3524  3525    1
  2939  3524  3526    1
  2940  3524  3527    1
  2941  3529  3530    1
  2942  3529  3534    1
  2943  3530  3531    1
  2944  3530  3532    1
  2945  3530  3533    1
  2946  3535  3536    1
  2947  3535  3540    1
  2948  3536  3537    1
  2949  3536  3538    1
  2950  3536  3539    1
  2951  3541  3542    1
  2952  3541  3546    1
  2953  3542  3543    1
  2954  3542  3544    1
  2955  3542  3545    1
  2956  3547  3548    1
  2957  3547  3552    1
  2958  3548  3549    1
  2959  3548  3550    1
  2960  3548  3551    1
  2961  3553  3554    1
  2962  3553  3558    1
  2963  3554  3555    1
  2964  3554  3556    1
  2965  3554  3557    1
  2966  3559  3560    1
  2967  3559  3564    1
  2968  3560  3561    1
  2969  3560  3562    1
  2970  3560  3563    1
  2971  3565  3566    1
  2972  3565  3570    1
  2973  3566  3567    1
  2974  3566  3568    1
  2975  3566  3569    1
  2976  3571  3572    1
  2977  3571  3576    1
  2978  3572  3573    1
  2979  3572  3574    1
  2980  3572  3575    1
  2981  3577  3578    1
  2982  3577  3582    1
  2983  3578  3579    1
  2984  3578  3580    1
  2985  3578  3581    1
  2986  3583  3584    1
  2987  3583  3588    1
  2988  3584  3585    1
  2989  3584  3586    1
  2990  3584  3587    1
  2991  3589  3590    1
  2992  3589  3594    1
  2993  3590  3591    1
  2994  3590  3592    1
  2995  3590  3593    1
  2996  3595  3596    1
  2997  3595  3600    1
  2998  3596  3597    1
  2999  3596  3598    1
  3000  3596  3599    1
  3001  3601  3602    1
  3002  3601  3606    1
  3003  3602  3603    1
  3004  3602  3604    1
  3005  3602  3605    1
  3006  3607  3608    1
  3007  3607  3612    1
  3008  3608  3609    1
  3009  3608  3610    1
  3010  3608  3611    1
  3011  3613  3614    1
  3012  3613  3618    1
  3013  3614  3615    1
  3014  3614  3616    1
  3015  3614  3617    1
  3016  3619  3620    1
  3017  3619  3624    1
  3018  3620  3621    1
  3019  3620  3622    1
  3020  3620  3623    1
  3021  3625  3626    1
  3022  3625  3630    1
  3023  3626  3627    1
  3024  3626  3628    1
  3025  3626  3629    1
  3026  3631  3632    1
  3027  3631  3636    1
  3028  3632  3633    1
  3029  3632  3634    1
  3030  3632  3635    1
  3031  3637  3638    1
  3032  3637  3642    1
  3033  3638  3639    1
  3034  3638  3640    1
  3035  3638  3641    1
  3036  3643  3644    1
  3037  3643  3648    1
  3038  3644  3645    1
  3039  3644  3646    1
  3040  3644  3647    1
  3041  3649  3650    1
  3042  3649  3654    1
  3043  3650  3651    1
  3044  3650  3652    1
  3045  3650  3653    1
  3046  3655  3656    1
  3047  3655  3660    1
  3048  3656  3657    1
  3049  3656  3658    1
  3050  3656  3659    1
  3051  3661  3662    1
  3052  3661  3666    1
  3053  3662  3663    1
  3054  3662  3664    1
  3055  3662  3665    1
  3056  3667  3668    1
  3057  3667  3672    1
  3058  3668  3669    1
  3059  3668  3670    1
  3060  3668  3671    1
  3061  3673  3674    1
  3062  3673  3678    1
  3063  3674  3675    1
  3064  3674  3676    1
  3065  3674  3677    1
  3066  3679  3680    1
  3067  3679  3684    1
  3068  3680  3681    1
  3069  3680  3682    1
  3070  3680  3683    1
  3071  3685  3686    1
  3072  3685  3690    1
  3073  3686  3687    1
  3074  3686  3688    1
  3075  3686  3689    1
  3076  3691  3692    1
  3077  3691  3696    1
  3078  3692  3693    1
  3079  3692  3694    1
  3080  3692  3695    1
  3081  3697  3698    1
  3082  3697  3702    1
  3083  3698  3699    1
  3084  3698  3700    1
  3085  3698  3701    1
  3086  3703  3704    1
  3087  3703  3708    1
  3088  3704  3705    1
  3089  3704  3706    1
  3090  3704  3707    1
  3091  3709  3710    1
  3092  3709  3714    1
  3093  3710  3711    1
  3094  3710  3712    1
  3095  3710  3713    1
  3096  3715  3716    1
  3097  3715  3720    1
  3098  3716  3717    1
  3099  3716  3718    1
  3100  3716  3719    1
  3101  3721  3722    1
  3102  3721  3726    1
  3103  3722  3723    1
  3104  3722  3724    1
  3105  3722  3725    1
  3106  3727  3728    1
  3107  3727  3732    1
  3108  3728  3729    1
  3109  3728  3730    1
  3110  3728  3731    1
  3111  3733  3734    1
  3112  3733  3738    1
  3113  3734  3735    1
  3114  3734  3736    1
  3115  3734  3737    1
  3116  3739  3740    1
  3117  3739  3744    1
  3118  3740  3741    1
  3119  3740  3742    1
  3120  3740  3743    1
  3121  3745  3746    1
  3122  3745  3750    1
  3123  3746  3747    1
  3124  3746  3748    1
  3125  3746  3749    1
  3126  3751  3752    1
  3127  3751  3756    1
  3128  3752  3753    1
  3129  3752  3754    1
  3130  3752  3755    1
  3131  3757  3758    1
  3132  3757  3762    1
  3133  3758  3759    1
  3134  3758  3760    1
  3135  3758  3761    1
  3136  3763  3764    1
  3137  3763  3768    1
  3138  3764  3765    1
  3139  3764  3766    1
  3140  3764  3767    1
  3141  3769  3770    1
  3142  3769  3774    1
  3143  3770  3771    1
  3144  3770  3772    1
  3145  3770  3773    1
  3146  3775  3776    1
  3147  3775  3780    1
  3148  3776  3777    1
  3149  3776  3778    1
  3150  3776  3779    1
  3151  3781  3782    1
  3152  3781  3786    1
  3153  3782  3783    1
  3154  3782  3784    1
  3155  3782  3785    1
  3156  3787  3788    1
  3157  3787  3792    1
  3158  3788  3789    1
  3159  3788  3790    1
  3160  3788  3791    1
  3161  3793  3794    1
  3162  3793  3798    1
  3163  3794  3795    1
  3164  3794  3796    1
  3165  3794  3797    1
  3166  3799  3800    1
  3167  3799  3804    1
  3168  3800  3801    1
  3169  3800  3802    1
  3170  3800  3803    1
  3171  3805  3806    1
  3172  3805  3810    1
  3173  3806  3807    1
  3174  3806  3808    1
  3175  3806  3809    1
  3176  3811  3812    1
  3177  3811  3816    1
  3178  3812  3813    1
  3179  3812  3814    1
  3180  3812  3815    1
  3181  3817  3818    1
  3182  3817  3822    1
  3183  3818  3819    1
  3184  3818  3820    1
  3185  3818  3821    1
  3186  3823  3824    1
  3187  3823  3828    1
  3188  3824  3825    1
  3189  3824  3826    1
  3190  3824  3827    1
  3191  3829  3830    1
  3192  3829  3834    1
  3193  3830  3831    1
  3194  3830  3832    1
  3195  3830  3833    1
  3196  3835  3836    1
  3197  3835  3840    1
  3198  3836  3837    1
  3199  3836  3838    1
  3200  3836  3839    1
  3201  3841  3842    1
  3202  3841  3846    1
  3203  3842  3843    1
  3204  3842  3844    1
  3205  3842  3845    1
  3206  3847  3848    1
  3207  3847  3852    1
  3208  3848  3849    1
  3209  3848  3850    1
  3210  3848  3851    1
  3211  3853  3854    1
  3212  3853  3858    1
  3213  3854  3855    1
  3214  3854  3856    1
  3215  3854  3857    1
  3216  3859  3860    1
  3217  3859  3864    1
  3218  3860  3861    1
  3219  3860  3862    1
  3220  3860  3863    1
  3221  3865  3866    1
  3222  3865  3870    1
  3223  3866  3867    1
  3224  3866  3868    1
  3225  3866  3869    1
  3226  3871  3872    1
  3227  3871  3876    1
  3228  3872  3873    1
  3229  3872  3874    1
  3230  3872  3875    1
  3231  3877  3878    1
  3232  3877  3882    1
  3233  3878  3879    1
  3234  3878  3880    1
  3235  3878  3881    1
  3236  3883  3884    1
  3237  3883  3888    1
  3238  3884  3885    1
  3239  3884  3886    1
  3240  3884  3887    1
  3241  3889  3890    1
  3242  3889  3894    1
  3243  3890  3891    1
  3244  3890  3892    1
  3245  3890  3893    1
  3246  3895  3896    1
  3247  3895  3900    1
  3248  3896  3897    1
  3249  3896  3898    1
  3250  3896  3899    1
  3251  3901  3902    1
  3252  3901  3906    1
  3253  3902  3903    1
  3254  3902  3904    1
  3255  3902  3905    1
  3256  3907  3908    1
  3257  3907  3912    1
  3258  3908  3909    1
  3259  3908  3910    1
  3260  3908  3911    1
  3261  3913  3914    1
  3262  3913  3918    1
  3263  3914  3915    1
  3264  3914  3916    1
  3265  3914  3917    1
  3266  3919  3920    1
  3267  3919  3924    1
  3268  3920  3921    1
  3269  3920  3922    1
  3270  3920  3923    1
  3271  3925  3926    1
  3272  3925  3930    1
  3273  3926  3927    1
  3274  3926  3928    1
  3275  3926  3929    1
  3276  3931  3932    1
  3277  3931  3936    1
  3278  3932  3933    1
  3279  3932  3934    1
  3280  3932  3935    1
  3281  3937  3938    1
  3282  3937  3942    1
  3283  3938  3939    1
  3284  3938  3940    1
  3285  3938  3941    1
  3286  3943  3944    1
  3287  3943  3948    1
  3288  3944  3945    1
  3289  3944  3946    1
  3290  3944  3947    1
  3291  3949  3950    1
  3292  3949  3954    1
  3293  3950  3951    1
  3294  3950  3952    1
  3295  3950  3953    1
  3296  3955  3956    1
  3297  3955  3960    1
  3298  3956  3957    1
  3299  3956  3958    1
  3300  3956  3959    1
  3301  3961  3962    1
  3302  3961  3966    1
  3303  3962  3963    1
  3304  3962  3964    1
  3305  3962  3965    1
  3306  3967  3968    1
  3307  3967  3972    1
  3308  3968  3969    1
  3309  3968  3970    1
  3310  3968  3971    1
  3311  3973  3974    1
  3312  3973  3978    1
  3313  3974  3975    1
  3314  3974  3976    1
  3315  3974  3977    1
  3316  3979  3980    1
  3317  3979  3984    1
  3318  3980  3981    1
  3319  3980  3982    1
  3320  3980  3983    1
  3321  3985  3986    1
  3322  3985  3990    1
  3323  3986  3987    1
  3324  3986  3988    1
  3325  3986  3989    1
  3326  3991  3992    1
  3327  3991  3996    1
  3328  3992  3993    1
  3329  3992  3994    1
  3330  3992  3995    1
  3331  3997  3998    1
  3332  3997  4002    1
  3333  3998  3999    1
  3334  3998  4000    1
  3335  3998  4001    1
  3336  4003  4004    1
  3337  4003  4008    1
  3338  4004  4005    1
  3339  4004  4006    1
  3340  4004  4007    1
  3341  4009  4010    1
  3342  4009  4014    1
  3343  4010  4011    1
  3344  4010  4012    1
  3345  4010  4013    1
  3346  4015  4016    1
  3347  4015  4020    1
  3348  4016  4017    1
  3349  4016  4018    1
  3350  4016  4019    1
  3351  4021  4022    1
  3352  4021  4026    1
  3353  4022  4023    1
  3354  4022  4024    1
  3355  4022  4025    1
  3356  4027  4028    1
  3357  4027  4032    1
  3358  4028  4029    1
  3359  4028  4030    1
  3360  4028  4031    1
  3361  4033  4034    1
  3362  4033  4038    1
  3363  4034  4035    1
  3364  4034  4036    1
  3365  4034  4037    1
  3366  4039  4040    1
  3367  4039  4044    1
  3368  4040  4041    1
  3369  4040  4042    1
  3370  4040  4043    1
  3371  4045  4046    1
  3372  4045  4050    1
  3373  4046  4047    1
  3374  4046  4048    1
  3375  4046  4049    1
  3376  4051  4052    1
  3377  4051  4056    1
  3378  4052  4053    1
  3379  4052  4054    1
  3380  4052  4055    1
  3381  4057  4058    1
  3382  4057  4062    1
  3383  4058  4059    1
  3384  4058  4060    1
  3385  4058  4061    1
  3386  4063  4064    1
  3387  4063  4068    1
  3388  4064  4065    1
  3389  4064  4066    1
  3390  4064  4067    1
  3391  4069  4070    1
  3392  4069  4074    1
  3393  4070  4071    1
  3394  4070  4072    1
  3395  4070  4073    1
  3396  4075  4076    1
  3397  4075  4080    1
  3398  4076  4077    1
  3399  4076  4078    1
  3400  4076  4079    1
  3401  4081  4082    1
  3402  4081  4086    1
  3403  4082  4083    1
  3404  4082  4084    1
  3405  4082  4085    1
  3406  4087  4088    1
  3407  4087  4092    1
  3408  4088  4089    1
  3409  4088  4090    1
  3410  4088  4091    1
  3411  4093  4094    1
  3412  4093  4098    1
  3413  4094  4095    1
  3414  4094  4096    1
  3415  4094  4097    1
  3416  4099  4100    1
  3417  4099  4104    1
  3418  4100  4101    1
  3419  4100  4102    1
  3420  4100  4103    1
  3421  4105  4106    1
  3422  4105  4110    1
  3423  4106  4107    1
  3424  4106  4108    1
  3425  4106  4109    1
  3426  4111  4112    1
  3427  4111  4116    1
  3428  4112  4113    1
  3429  4112  4114    1
  3430  4112  4115    1
  3431  4117  4118    1
  3432  4117  4122    1
  3433  4118  4119    1
  3434  4118  4120    1
  3435  4118  4121    1
  3436  4123  4124    1
  3437  4123  4128    1
  3438  4124  4125    1
  3439  4124  4126    1
  3440  4124  4127    1
  3441  4129  4130    1
  3442  4129  4134    1
  3443  4130  4131    1
  3444  4130  4132    1
  3445  4130  4133    1
  3446  4135  4136    1
  3447  4135  4140    1
  3448  4136  4137    1
  3449  4136  4138    1
  3450  4136  4139    1
  3451  4141  4142    1
  3452  4141  4146    1
  3453  4142  4143    1
  3454  4142  4144    1
  3455  4142  4145    1
  3456  4147  4148    1
  3457  4147  4152    1
  3458  4148  4149    1
  3459  4148  4150    1
  3460  4148  4151    1
  3461  4153  4154    1
  3462  4153  4158    1
  3463  4154  4155    1
  3464  4154  4156    1
  3465  4154  4157    1
  3466  4159  4160    1
  3467  4159  4164    1
  3468  4160  4161    1
  3469  4160  4162    1
  3470  4160  4163    1
  3471  4165  4166    1
  3472  4165  4170    1
  3473  4166  4167    1
  3474  4166  4168    1
  3475  4166  4169    1
  3476  4171  4172    1
  3477  4171  4176    1
  3478  4172  4173    1
  3479  4172  4174    1
  3480  4172  4175    1
  3481  4177  4178    1
  3482  4177  4182    1
  3483  4178  4179    1
  3484  4178  4180    1
  3485  4178  4181    1
  3486  4183  4184    1
  3487  4183  4188    1
  3488  4184  4185    1
  3489  4184  4186    1
  3490  4184  4187    1
  3491  4189  4190    1
  3492  4189  4194    1
  3493  4190  4191    1
  3494  4190  4192    1
  3495  4190  4193    1
  3496  4195  4196    1
  3497  4195  4200    1
  3498  4196  4197    1
  3499  4196  4198    1
  3500  4196  4199    1
  3501  4201  4202    1
  3502  4201  4206    1
  3503  4202  4203    1
  3504  4202  4204    1
  3505  4202  4205    1
  3506  4207  4208    1
  3507  4207  4212    1
  3508  4208  4209    1
  3509  4208  4210    1
  3510  4208  4211    1
  3511  4213  4214    1
  3512  4213  4218    1
  3513  4214  4215    1
  3514  4214  4216    1
  3515  4214  4217    1
  3516  4219  4220    1
  3517  4219  4224    1
  3518  4220  4221    1
  3519  4220  4222    1
  3520  4220  4223    1
  3521  4225  4226    1
  3522  4225  4230    1
  3523  4226  4227    1
  3524  4226  4228    1
  3525  4226  4229    1
  3526  4231  4232    1
  3527  4231  4236    1
  3528  4232  4233    1
  3529  4232  4234    1
  3530  4232  4235    1
  3531  4237  4238    1
  3532  4237  4242    1
  3533  4238  4239    1
  3534  4238  4240    1
  3535  4238  4241    1
  3536  4243  4244    1
  3537  4243  4248    1
  3538  4244  4245    1
  3539  4244  4246    1
  3540  4244  4247    1
  3541  4249  4250    1
  3542  4249  4254    1
  3543  4250  4251    1
  3544  4250  4252    1
  3545  4250  4253    1
  3546  4255  4256    1
  3547  4255  4260    1
  3548  4256  4257    1
  3549  4256  4258    1
  3550  4256  4259    1
  3551  4261  4262    1
  3552  4261  4266    1
  3553  4262  4263    1
  3554  4262  4264    1
  3555  4262  4265    1
  3556  4267  4268    1
  3557  4267  4272    1
  3558  4268  4269    1
  3559  4268  4270    1
  3560  4268  4271    1
  3561  4273  4274    1
  3562  4273  4278    1
  3563  4274  4275    1
  3564  4274  4276    1
  3565  4274  4277    1
  3566  4279  4280    1
  3567  4279  4284    1
  3568  4280  4281    1
  3569  4280  4282    1
  3570  4280  4283    1
  3571  4285  4286    1
  3572  4285  4290    1
  3573  4286  4287    1
  3574  4286  4288    1
  3575  4286  4289    1
  3576  4291  4292    1
  3577  4291  4296    1
  3578  4292  4293    1
  3579  4292  4294    1
  3580  4292  4295    1
  3581  4297  4298    1
  3582  4297  4302    1
  3583  4298  4299    1
  3584  4298  4300    1
  3585  4298  4301    1
  3586  4303  4304    1
  3587  4303  4308    1
  3588  4304  4305    1
  3589  4304  4306    1
  3590  4304  4307    1
  3591  4309  4310    1
  3592  4309  4314    1
  3593  4310  4311    1
  3594  4310  4312    1
  3595  4310  4313    1
  3596  4315  4316    1
  3597  4315  4320    1
  3598  4316  4317    1
  3599  4316  4318    1
  3600  4316  4319    1
  3601  4321  4322    1
  3602  4321  4326    1
  3603  4322  4323    1
  3604  4322  4324    1
  3605  4322  4325    1
  3606  4327  4328    1
  3607  4327  4332    1
  3608  4328  4329    1
  3609  4328  4330    1
  3610  4328  4331    1
  3611  4333  4334    1
  3612  4333  4338    1
  3613  4334  4335    1
  3614  4334  4336    1
  3615  4334  4337    1
  3616  4339  4340    1
  3617  4339  4344    1
  3618  4340  4341    1
  3619  4340  4342    1
  3620  4340  4343    1
  3621  4345  4346    1
  3622  4345  4350    1
  3623  4346  4347    1
  3624  4346  4348    1
  3625  4346  4349    1
  3626  4351  4352    1
  3627  4351  4356    1
  3628  4352  4353    1
  3629  4352  4354    1
  3630  4352  4355    1
  3631  4357  4358    1
  3632  4357  4362    1
  3633  4358  4359    1
  3634  4358  4360    1
  3635  4358  4361    1
  3636  4363  4364    1
  3637  4363  4368    1
  3638  4364  4365    1
  3639  4364  4366    1
  3640  4364  4367    1
  3641  4369  4370    1
  3642  4369  4374    1
  3643  4370  4371    1
  3644  4370  4372    1
  3645  4370  4373    1
  3646  4375  4376    1
  3647  4375  4380    1
  3648  4376  4377    1
  3649  4376  4378    1
  3650  4376  4379    1
  3651  4381  4382    1
  3652  4381  4386    1
  3653  4382  4383    1
  3654  4382  4384    1
  3655  4382  4385    1
  3656  4387  4388    1
  3657  4387  4392    1
  3658  4388  4389    1
  3659  4388  4390    1
  3660  4388  4391    1
  3661  4393  4394    1
  3662  4393  4398    1
  3663  4394  4395    1
  3664  4394  4396    1
  3665  4394  4397    1
  3666  4399  4400    1
  3667  4399  4404    1
  3668  4400  4401    1
  3669  4400  4402    1
  3670  4400  4403    1
  3671  4405  4406    1
  3672  4405  4410    1
  3673  4406  4407    1
  3674  4406  4408    1
  3675  4406  4409    1
  3676  4411  4412    1
  3677  4411  4416    1
  3678  4412  4413    1
  3679  4412  4414    1
  3680  4412  4415    1
  3681  4417  4418    1
  3682  4417  4422    1
  3683  4418  4419    1
  3684  4418  4420    1
  3685  4418  4421    1
  3686  4423  4424    1
  3687  4423  4428    1
  3688  4424  4425    1
  3689  4424  4426    1
  3690  4424  4427    1
  3691  4429  4430    1
  3692  4429  4434    1
  3693  4430  4431    1
  3694  4430  4432    1
  3695  4430  4433    1
  3696  4435  4436    1
  3697  4435  4440    1
  3698  4436  4437    1
  3699  4436  4438    1
  3700  4436  4439    1
  3701  4441  4442    1
  3702  4441  4446    1
  3703  4442  4443    1
  3704  4442  4444    1
  3705  4442  4445    1
  3706  4447  4448    1
  3707  4447  4452    1
  3708  4448  4449    1
  3709  4448  4450    1
  3710  4448  4451    1
  3711  4453  4454    1
  3712  4453  4458    1
  3713  4454  4455    1
  3714  4454  4456    1
  3715  4454  4457    1
  3716  4459  4460    1
  3717  4459  4464    1
  3718  4460  4461    1
  3719  4460  4462    1
  3720  4460  4463    1
  3721  4465  4466    1
  3722  4465  4470    1
  3723  4466  4467    1
  3724  4466  4468    1
  3725  4466  4469    1
  3726  4471  4472    1
  3727  4471  4476    1
  3728  4472  4473    1
  3729  4472  4474    1
  3730  4472  4475    1
  3731  4477  4478    1
  3732  4477  4482    1
  3733  4478  4479    1
  3734  4478  4480    1
  3735  4478  4481    1
  3736  4483  4484    1
  3737  4483  4488    1
  3738  4484  4485    1
  3739  4484  4486    1
  3740  4484  4487    1
  3741  4489  4490    1
  3742  4489  4494    1
  3743  4490  4491    1
  3744  4490  4492    1
  3745  4490  4493    1
  3746  4495  4496    1
  3747  4495  4500    1
  3748  4496  4497    1
  3749  4496  4498    1
  3750  4496  4499    1
  3751  4501  4502    1
  3752  4501  4506    1
  3753  4502  4503    1
  3754  4502  4504    1
  3755  4502  4505    1
  3756  4507  4508    1
  3757  4507  4512    1
  3758  4508  4509    1
  3759  4508  4510    1
  3760  4508  4511    1
  3761  4513  4514    1
  3762  4513  4518    1
  3763  4514  4515    1
  3764  4514  4516    1
  3765  4514  4517    1
  3766  4519  4520    1
  3767  4519  4524    1
  3768  4520  4521    1
  3769  4520  4522    1
  3770  4520  4523    1
  3771  4525  4526    1
  3772  4525  4530    1
  3773  4526  4527    1
  3774  4526  4528    1
  3775  4526  4529    1
  3776  4531  4532    1
  3777  4531  4536    1
  3778  4532  4533    1
  3779  4532  4534    1
  3780  4532  4535    1
  3781  4537  4538    1
  3782  4537  4542    1
  3783  4538  4539    1
  3784  4538  4540    1
  3785  4538  4541    1
  3786  4543  4544    1
  3787  4543  4548    1
  3788  4544  4545    1
  3789  4544  4546    1
  3790  4544  4547    1
  3791  4549  4550    1
  3792  4549  4554    1
  3793  4550  4551    1
  3794  4550  4552    1
  3795  4550  4553    1
  3796  4555  4556    1
  3797  4555  4560    1
  3798  4556  4557    1
  3799  4556  4558    1
  3800  4556  4559    1
  3801  4561  4562    1
  3802  4561  4566    1
  3803  4562  4563    1
  3804  4562  4564    1
  3805  4562  4565    1
  3806  4567  4568    1
  3807  4567  4572    1
  3808  4568  4569    1
  3809  4568  4570    1
  3810  4568  4571    1
  3811  4573  4574    1
  3812  4573  4578    1
  3813  4574  4575    1
  3814  4574  4576    1
  3815  4574  4577    1
  3816  4579  4580    1
  3817  4579  4584    1
  3818  4580  4581    1
  3819  4580  4582    1
  3820  4580  4583    1
  3821  4585  4586    1
  3822  4585  4590    1
  3823  4586  4587    1
  3824  4586  4588    1
  3825  4586  4589    1
  3826  4591  4592    1
  3827  4591  4596    1
  3828  4592  4593    1
  3829  4592  4594    1
  3830  4592  4595    1
  3831  4597  4598    1
  3832  4597  4602    1
  3833  4598  4599    1
  3834  4598  4600    1
  3835  4598  4601    1
  3836  4603  4604    1
  3837  4603  4608    1
  3838  4604  4605    1
  3839  4604  4606    1
  3840  4604  4607    1
  3841  4609  4610    1
  3842  4609  4614    1
  3843  4610  4611    1
  3844  4610  4612    1
  3845  4610  4613    1
  3846  4615  4616    1
  3847  4615  4620    1
  3848  4616  4617    1
  3849  4616  4618    1
  3850  4616  4619    1
  3851  4621  4622    1
  3852  4621  4626    1
  3853  4622  4623    1
  3854  4622  4624    1
  3855  4622  4625    1
  3856  4627  4628    1
  3857  4627  4632    1
  3858  4628  4629    1
  3859  4628  4630    1
  3860  4628  4631    1
  3861  4633  4634    1
  3862  4633  4638    1
  3863  4634  4635    1
  3864  4634  4636    1
  3865  4634  4637    1
  3866  4639  4640    1
  3867  4639  4644    1
  3868  4640  4641    1
  3869  4640  4642    1
  3870  4640  4643    1
  3871  4645  4646    1
  3872  4645  4650    1
  3873  4646  4647    1
  3874  4646  4648    1
  3875  4646  4649    1
  3876  4651  4652    1
  3877  4651  4656    1
  3878  4652  4653    1
  3879  4652  4654    1
  3880  4652  4655    1
  3881  4657  4658    1
  3882  4657  4662    1
  3883  4658  4659    1
  3884  4658  4660    1
  3885  4658  4661    1
  3886  4663  4664    1
  3887  4663  4668    1
  3888  4664  4665    1
  3889  4664  4666    1
  3890  4664  4667    1
  3891  4669  4670    1
  3892  4669  4674    1
  3893  4670  4671    1
  3894  4670  4672    1
  3895  4670  4673    1
  3896  4675  4676    1
  3897  4675  4680    1
  3898  4676  4677    1
  3899  4676  4678    1
  3900  4676  4679    1
  3901  4681  4682    1
  3902  4681  4686    1
  3903  4682  4683    1
  3904  4682  4684    1
  3905  4682  4685    1
  3906  4687  4688    1
  3907  4687  4692    1
  3908  4688  4689    1
  3909  4688  4690    1
  3910  4688  4691    1
  3911  4693  4694    1
  3912  4693  4698    1
  3913  4694  4695    1
  3914  4694  4696    1
  3915  4694  4697    1
  3916  4699  4700    1
  3917  4699  4704    1
  3918  4700  4701    1
  3919  4700  4702    1
  3920  4700  4703    1
  3921  4705  4706    1
  3922  4705  4710    1
  3923  4706  4707    1
  3924  4706  4708    1
  3925  4706  4709    1
  3926  4711  4712    1
  3927  4711  4716    1
  3928  4712  4713    1
  3929  4712  4714    1
  3930  4712  4715    1
  3931  4717  4718    1
  3932  4717  4722    1
  3933  4718  4719    1
  3934  4718  4720    1
  3935  4718  4721    1
  3936  4723  4724    1
  3937  4723  4728    1
  3938  4724  4725    1
  3939  4724  4726    1
  3940  4724  4727    1
  3941  4729  4730    1
  3942  4729  4734    1
  3943  4730  4731    1
  3944  4730  4732    1
  3945  4730  4733    1
  3946  4735  4736    1
  3947  4735  4740    1
  3948  4736  4737    1
  3949  4736  4738    1
  3950  4736  4739    1
  3951  4741  4742    1
  3952  4741  4746    1
  3953  4742  4743    1
  3954  4742  4744    1
  3955  4742  4745    1
  3956  4747  4748    1
  3957  4747  4752    1
  3958  4748  4749    1
  3959  4748  4750    1
  3960  4748  4751    1
  3961  4753  4754    1
  3962  4753  4758    1
  3963  4754  4755    1
  3964  4754  4756    1
  3965  4754  4757    1
  3966  4759  4760    1
  3967  4759  4764    1
  3968  4760  4761    1
  3969  4760  4762    1
  3970  4760  4763    1
  3971  4765  4766    1
  3972  4765  4770    1
  3973  4766  4767    1
  3974  4766  4768    1
  3975  4766  4769    1
  3976  4771  4772    1
  3977  4771  4776    1
  3978  4772  4773    1
  3979  4772  4774    1
  3980  4772  4775    1
  3981  4777  4778    1
  3982  4777  4782    1
  3983  4778  4779    1
  3984  4778  4780    1
  3985  4778  4781    1
  3986  4783  4784    1
  3987  4783  4788    1
  3988  4784  4785    1
  3989  4784  4786    1
  3990  4784  4787    1
  3991  4789  4790    1
  3992  4789  4794    1
  3993  4790  4791    1
  3994  4790  4792    1
  3995  4790  4793    1
  3996  4795  4796    1
  3997  4795  4800    1
  3998  4796  4797    1
  3999  4796  4798    1
  4000  4796  4799    1
  4001  4801  4802    1
  4002  4801  4806    1
  4003  4802  4803    1
  4004  4802  4804    1
  4005  4802  4805    1
  4006  4807  4808    1
  4007  4807  4812    1
  4008  4808  4809    1
  4009  4808  4810    1
  4010  4808  4811    1
  4011  4813  4814    1
  4012  4813  4818    1
  4013  4814  4815    1
  4014  4814  4816    1
  4015  4814  4817    1
  4016  4819  4820    1
  4017  4819  4824    1
  4018  4820  4821    1
  4019  4820  4822    1
  4020  4820  4823    1
  4021  4825  4826    1
  4022  4825  4830    1
  4023  4826  4827    1
  4024  4826  4828    1
  4025  4826  4829    1
  4026  4831  4832    1
  4027  4831  4836    1
  4028  4832  4833    1
  4029  4832  4834    1
  4030  4832  4835    1
  4031  4837  4838    1
  4032  4837  4842    1
  4033  4838  4839    1
  4034  4838  4840    1
  4035  4838  4841    1
  4036  4843  4844    1
  4037  4843  4848    1
  4038  4844  4845    1
  4039  4844  4846    1
  4040  4844  4847    1
  4041  4849  4850    1
  4042  4849  4854    1
  4043  4850  4851    1
  4044  4850  4852    1
  4045  4850  4853    1
  4046  4855  4856    1
  4047  4855  4860    1
  4048  4856  4857    1
  4049  4856  4858    1
  4050  4856  4859    1
  4051  4861  4862    1
  4052  4861  4866    1
  4053  4862  4863    1
  4054  4862  4864    1
  4055  4862  4865    1
  4056  4867  4868    1
  4057  4867  4872    1
  4058  4868  4869    1
  4059  4868  4870    1
  4060  4868  4871    1
  4061  4873  4874    1
  4062  4873  4878    1
  4063  4874  4875    1
  4064  4874  4876    1
  4065  4874  4877    1
  4066  4879  4880    1
  4067  4879  4884    1
  4068  4880  4881    1
  4069  4880  4882    1
  4070  4880  4883    1
  4071  4885  4886    1
  4072  4885  4890    1
  4073  4886  4887    1
  4074  4886  4888    1
  4075  4886  4889    1
  4076  4891  4892    1
  4077  4891  4896    1
  4078  4892  4893    1
  4079  4892  4894    1
  4080  4892  4895    1
  4081  4897  4898    1
  4082  4897  4902    1
  4083  4898  4899    1
  4084  4898  4900    1
  4085  4898  4901    1
  4086  4903  4904    1
  4087  4903  4908    1
  4088  4904  4905    1
  4089  4904  4906    1
  4090  4904  4907    1
  4091  4909  4910    1
  4092  4909  4914    1
  4093  4910  4911    1
  4094  4910  4912    1
  4095  4910  4913    1
  4096  4915  4916    1
  4097  4915  4920    1
  4098  4916  4917    1
  4099  4916  4918    1
  4100  4916  4919    1
  4101  4921  4922    1
  4102  4921  4926    1
  4103  4922  4923    1
  4104  4922  4924    1
  4105  4922  4925    1
  4106  4927  4928    1
  4107  4927  4932    1
  4108  4928  4929    1
  4109  4928  4930    1
  4110  4928  4931    1
  4111  4933  4934    1
  4112  4933  4938    1
  4113  4934  4935    1
  4114  4934  4936    1
  4115  4934  4937    1
  4116  4939  4940    1
  4117  4939  4944    1
  4118  4940  4941    1
  4119  4940  4942    1
  4120  4940  4943    1
  4121  4945  4946    1
  4122  4945  4950    1
  4123  4946  4947    1
  4124  4946  4948    1
  4125  4946  4949    1
  4126  4951  4952    1
  4127  4951  4956    1
  4128  4952  4953    1
  4129  4952  4954    1
  4130  4952  4955    1
  4131  4957  4958    1
  4132  4957  4962    1
  4133  4958  4959    1
  4134  4958  4960    1
  4135  4958  4961    1
  4136  4963  4964    1
  4137  4963  4968    1
  4138  4964  4965    1
  4139  4964  4966    1
  4140  4964  4967    1
  4141  4969  4970    1
  4142  4969  4974    1
  4143  4970  4971    1
  4144  4970  4972    1
  4145  4970  4973    1
  4146  4975  4976    1
  4147  4975  4980    1
  4148  4976  4977    1
  4149  4976  4978    1
  4150  4976  4979    1
  4151  4981  4982    1
  4152  4981  4986    1
  4153  4982  4983    1
  4154  4982  4984    1
  4155  4982  4985    1
  4156  4987  4988    1
  4157  4987  4992    1
  4158  4988  4989    1
  4159  4988  4990    1
  4160  4988  4991    1
  4161  4993  4994    1
  4162  4993  4998    1
  4163  4994  4995    1
  4164  4994  4996    1
  4165  4994  4997    1
  4166  4999  5000    1
  4167  4999  5004    1
  4168  5000  5001    1
  4169  5000  5002    1
  4170  5000  5003    1
  4171  5005  5006    1
  4172  5005  5010    1
  4173  5006  5007    1
  4174  5006  5008    1
  4175  5006  5009    1
  4176  5011  5012    1
  4177  5011  5016    1
  4178  5012  5013    1
  4179  5012  5014    1
  4180  5012  5015    1
  4181  5017  5018    1
  4182  5017  5022    1
  4183  5018  5019    1
  4184  5018  5020    1
  4185  5018  5021    1
  4186  5023  5024    1
  4187  5023  5028    1
  4188  5024  5025    1
  4189  5024  5026    1
  4190  5024  5027    1
  4191  5029  5030    1
  4192  5029  5034    1
  4193  5030  5031    1
  4194  5030  5032    1
  4195  5030  5033    1
  4196  5035  5036    1
  4197  5035  5040    1
  4198  5036  5037    1
  4199  5036  5038    1
  4200  5036  5039    1
  4201  5041  5042    1
  4202  5041  5046    1
  4203  5042  5043    1
  4204  5042  5044    1
  4205  5042  5045    1
  4206  5047  5048    1
  4207  5047  5052    1
  4208  5048  5049    1
  4209  5048  5050    1
  4210  5048  5051    1
  4211  5053  5054    1
  4212  5053  5058    1
  4213  5054  5055    1
  4214  5054  5056    1
  4215  5054  5057    1
  4216  5059  5060    1
  4217  5059  5064    1
  4218  5060  5061    1
  4219  5060  5062    1
  4220  5060  5063    1
  4221  5065  5066    1
  4222  5065  5070    1
  4223  5066  5067    1
  4224  5066  5068    1
  4225  5066  5069    1
  4226  5071  5072    1
  4227  5071  5076    1
  4228  5072  5073    1
  4229  5072  5074    1
  4230  5072  5075    1
  4231  5077  5078    1
  4232  5077  5082    1
  4233  5078  5079    1
  4234  5078  5080    1
  4235  5078  5081    1
  4236  5083  5084    1
  4237  5083  5088    1
  4238  5084  5085    1
  4239  5084  5086    1
  4240  5084  5087    1
  4241  5089  5090    1
  4242  5089  5094    1
  4243  5090  5091    1
  4244  5090  5092    1
  4245  5090  5093    1
  4246  5095  5096    1
  4247  5095  5100    1
  4248  5096  5097    1
  4249  5096  5098    1
  4250  5096  5099    1
  4251  5101  5102    1
  4252  5101  5106    1
  4253  5102  5103    1
  4254  5102  5104    1
  4255  5102  5105    1
  4256  5107  5108    1
  4257  5107  5112    1
  4258  5108  5109    1
  4259  5108  5110    1
  4260  5108  5111    1
  4261  5113  5114    1
  4262  5113  5118    1
  4263  5114  5115    1
  4264  5114  5116    1
  4265  5114  5117    1
  4266  5119  5120    1
  4267  5119  5124    1
  4268  5120  5121    1
  4269  5120  5122    1
  4270  5120  5123    1
  4271  5125  5126    1
  4272  5125  5130    1
  4273  5126  5127    1
  4274  5126  5128    1
  4275  5126  5129    1
  4276  5131  5132    1
  4277  5131  5136    1
  4278  5132  5133    1
  4279  5132  5134    1
  4280  5132  5135    1
  4281  5137  5138    1
  4282  5137  5142    1
  4283  5138  5139    1
  4284  5138  5140    1
  4285  5138  5141    1
  4286  5143  5144    1
  4287  5143  5148    1
  4288  5144  5145    1
  4289  5144  5146    1
  4290  5144  5147    1
  4291  5149  5150    1
  4292  5149  5154    1
  4293  5150  5151    1
  4294  5150  5152    1
  4295  5150  5153    1
  4296  5155  5156    1
  4297  5155  5160    1
  4298  5156  5157    1
  4299  5156  5158    1
  4300  5156  5159    1
  4301  5161  5162    1
  4302  5161  5166    1
  4303  5162  5163    1
  4304  5162  5164    1
  4305  5162  5165    1
  4306  5167  5168    1
  4307  5167  5172    1
  4308  5168  5169    1
  4309  5168  5170    1
  4310  5168  5171    1
  4311  5173  5174    1
  4312  5173  5178    1
  4313  5174  5175    1
  4314  5174  5176    1
  4315  5174  5177    1
  4316  5179  5180    1
  4317  5179  5184    1
  4318  5180  5181    1
  4319  5180  5182    1
  4320  5180  5183    1
  4321  5185  5186    1
  4322  5185  5190    1
  4323  5186  5187    1
  4324  5186  5188    1
  4325  5186  5189    1
  4326  5191  5192    1
  4327  5191  5196    1
  4328  5192  5193    1
  4329  5192  5194    1
  4330  5192  5195    1
  4331  5197  5198    1
  4332  5197  5202    1
  4333  5198  5199    1
  4334  5198  5200    1
  4335  5198  5201    1
  4336  5203  5204    1
  4337  5203  5208    1
  4338  5204  5205    1
  4339  5204  5206    1
  4340  5204  5207    1
  4341  5209  5210    1
  4342  5209  5214    1
  4343  5210  5211    1
  4344  5210  5212    1
  4345  5210  5213    1
  4346  5215  5216    1
  4347  5215  5220    1
  4348  5216  5217    1
  4349  5216  5218    1
  4350  5216  5219    1
  4351  5221  5222    1
  4352  5221  5226    1
  4353  5222  5223    1
  4354  5222  5224    1
  4355  5222  5225    1
  4356  5227  5228    1
  4357  5227  5232    1
  4358  5228  5229    1
  4359  5228  5230    1
  4360  5228  5231    1
  4361  5233  5234    1
  4362  5233  5238    1
  4363  5234  5235    1
  4364  5234  5236    1
  4365  5234  5237    1
  4366  5239  5240    1
  4367  5239  5244    1
  4368  5240  5241    1
  4369  5240  5242    1
  4370  5240  5243    1
  4371  5245  5246    1
  4372  5245  5250    1
  4373  5246  5247    1
  4374  5246  5248    1
  4375  5246  5249    1
  4376  5251  5252    1
  4377  5251  5256    1
  4378  5252  5253    1
  4379  5252  5254    1
  4380  5252  5255    1
  4381  5257  5258    1
  4382  5257  5262    1
  4383  5258  5259    1
  4384  5258  5260    1
  4385  5258  5261    1
  4386  5263  5264    1
  4387  5263  5268    1
  4388  5264  5265    1
  4389  5264  5266    1
  4390  5264  5267    1
  4391  5269  5270    1
  4392  5269  5274    1
  4393  5270  5271    1
  4394  5270  5272    1
  4395  5270  5273    1
  4396  5275  5276    1
  4397  5275  5280    1
  4398  5276  5277    1
  4399  5276  5278    1
  4400  5276  5279    1
  4401  5281  5282    1
  4402  5281  5286    1
  4403  5282  5283    1
  4404  5282  5284    1
  4405  5282  5285    1
  4406  5287  5288    1
  4407  5287  5292    1
  4408  5288  5289    1
  4409  5288  5290    1
  4410  5288  5291    1
  4411  5293  5294    1
  4412  5293  5298    1
  4413  5294  5295    1
  4414  5294  5296    1
  4415  5294  5297    1
  4416  5299  5300    1
  4417  5299  5304    1
  4418  5300  5301    1
  4419  5300  5302    1
  4420  5300  5303    1
  4421  5305  5306    1
  4422  5305  5310    1
  4423  5306  5307    1
  4424  5306  5308    1
  4425  5306  5309    1
  4426  5311  5312    1
  4427  5311  5316    1
  4428  5312  5313    1
  4429  5312  5314    1
  4430  5312  5315    1
  4431  5317  5318    1
  4432  5317  5322    1
  4433  5318  5319    1
  4434  5318  5320    1
  4435  5318  5321    1
  4436  5323  5324    1
  4437  5323  5328    1
  4438  5324  5325    1
  4439  5324  5326    1
  4440  5324  5327    1
  4441  5329  5330    1
  4442  5329  5334    1
  4443  5330  5331    1
  4444  5330  5332    1
  4445  5330  5333    1
  4446  5335  5336    1
  4447  5335  5340    1
  4448  5336  5337    1
  4449  5336  5338    1
  4450  5336  5339    1
  4451  5341  5342    1
  4452  5341  5346    1
  4453  5342  5343    1
  4454  5342  5344    1
  4455  5342  5345    1
  4456  5347  5348    1
  4457  5347  5352    1
  4458  5348  5349    1
  4459  5348  5350    1
  4460  5348  5351    1
  4461  5353  5354    1
  4462  5353  5358    1
  4463  5354  5355    1
  4464  5354  5356    1
  4465  5354  5357    1
  4466  5359  5360    1
  4467  5359  5364    1
  4468  5360  5361    1
  4469  5360  5362    1
  4470  5360  5363    1
  4471  5365  5366    1
  4472  5365  5370    1
  4473  5366  5367    1
  4474  5366  5368    1
  4475  5366  5369    1
  4476  5371  5372    1
  4477  5371  5376    1
  4478  5372  5373    1
  4479  5372  5374    1
  4480  5372  5375    1
  4481  5377  5378    1
  4482  5377  5382    1
  4483  5378  5379    1
  4484  5378  5380    1
  4485  5378  5381    1
  4486  5383  5384    1
  4487  5383  5388    1
  4488  5384  5385    1
  4489  5384  5386    1
  4490  5384  5387    1
  4491  5389  5390    1
  4492  5389  5394    1
  4493  5390  5391    1
  4494  5390  5392    1
  4495  5390  5393    1
  4496  5395  5396    1
  4497  5395  5400    1
  4498  5396  5397    1
  4499  5396  5398    1
  4500  5396  5399    1
  4501  5401  5402    1
  4502  5401  5406    1
  4503  5402  5403    1
  4504  5402  5404    1
  4505  5402  5405    1
  4506  5407  5408    1
  4507  5407  5412    1
  4508  5408  5409    1
  4509  5408  5410    1
  4510  5408  5411    1
  4511  5413  5414    1
  4512  5413  5418    1
  4513  5414  5415    1
  4514  5414  5416    1
  4515  5414  5417    1
  4516  5419  5420    1
  4517  5419  5424    1
  4518  5420  5421    1
  4519  5420  5422    1
  4520  5420  5423    1
  4521  5425  5426    1
  4522  5425  5430    1
  4523  5426  5427    1
  4524  5426  5428    1
  4525  5426  5429    1
  4526  5431  5432    1
  4527  5431  5436    1
  4528  5432  5433    1
  4529  5432  5434    1
  4530  5432  5435    1
  4531  5437  5438    1
  4532  5437  5442    1
  4533  5438  5439    1
  4534  5438  5440    1
  4535  5438  5441    1
  4536  5443  5444    1
  4537  5443  5448    1
  4538  5444  5445    1
  4539  5444  5446    1
  4540  5444  5447    1
  4541  5449  5450    1
  4542  5449  5454    1
  4543  5450  5451    1
  4544  5450  5452    1
  4545  5450  5453    1
  4546  5455  5456    1
  4547  5455  5460    1
  4548  5456  5457    1
  4549  5456  5458    1
  4550  5456  5459    1
  4551  5461  5462    1
  4552  5461  5466    1
  4553  5462  5463    1
  4554  5462  5464    1
  4555  5462  5465    1
  4556  5467  5468    1
  4557  5467  5472    1
  4558  5468  5469    1
  4559  5468  5470    1
  4560  5468  5471    1
  4561  5473  5474    1
  4562  5473  5478    1
  4563  5474  5475    1
  4564  5474  5476    1
  4565  5474  5477    1
  4566  5479  5480    1
  4567  5479  5484    1
  4568  5480  5481    1
  4569  5480  5482    1
  4570  5480  5483    1
  4571  5485  5486    1
  4572  5485  5490    1
  4573  5486  5487    1
  4574  5486  5488    1
  4575  5486  5489    1
  4576  5491  5492    1
  4577  5491  5496    1
  4578  5492  5493    1
  4579  5492  5494    1
  4580  5492  5495    1
  4581  5497  5498    1
  4582  5497  5502    1
  4583  5498  5499    1
  4584  5498  5500    1
  4585  5498  5501    1
  4586  5503  5504    1
  4587  5503  5508    1
  4588  5504  5505    1
  4589  5504  5506    1
  4590  5504  5507    1
  4591  5509  5510    1
  4592  5509  5514    1
  4593  5510  5511    1
  4594  5510  5512    1
  4595  5510  5513    1
  4596  5515  5516    1
  4597  5515  5520    1
  4598  5516  5517    1
  4599  5516  5518    1
  4600  5516  5519    1
  4601  5521  5522    1
  4602  5521  5526    1
  4603  5522  5523    1
  4604  5522  5524    1
  4605  5522  5525    1
  4606  5527  5528    1
  4607  5527  5532    1
  4608  5528  5529    1
  4609  5528  5530    1
  4610  5528  5531    1
  4611  5533  5534    1
  4612  5533  5538    1
  4613  5534  5535    1
  4614  5534  5536    1
  4615  5534  5537    1
  4616  5539  5540    1
  4617  5539  5544    1
  4618  5540  5541    1
  4619  5540  5542    1
  4620  5540  5543    1
  4621  5545  5546    1
  4622  5545  5550    1
  4623  5546  5547    1
  4624  5546  5548    1
  4625  5546  5549    1
  4626  5551  5552    1
  4627  5551  5556    1
  4628  5552  5553    1
  4629  5552  5554    1
  4630  5552  5555    1
  4631  5557  5558    1
  4632  5557  5562    1
  4633  5558  5559    1
  4634  5558  5560    1
  4635  5558  5561    1
  4636  5563  5564    1
  4637  5563  5568    1
  4638  5564  5565    1
  4639  5564  5566    1
  4640  5564  5567    1
  4641  5569  5570    1
  4642  5569  5574    1
  4643  5570  5571    1
  4644  5570  5572    1
  4645  5570  5573    1
  4646  5575  5576    1
  4647  5575  5580    1
  4648  5576  5577    1
  4649  5576  5578    1
  4650  5576  5579    1
  4651  5581  5582    1
  4652  5581  5586    1
  4653  5582  5583    1
  4654  5582  5584    1
  4655  5582  5585    1
  4656  5587  5588    1
  4657  5587  5592    1
  4658  5588  5589    1
  4659  5588  5590    1
  4660  5588  5591    1
  4661  5593  5594    1
  4662  5593  5598    1
  4663  5594  5595    1
  4664  5594  5596    1
  4665  5594  5597    1
  4666  5599  5600    1
  4667  5599  5604    1
  4668  5600  5601    1
  4669  5600  5602    1
  4670  5600  5603    1
  4671  5605  5606    1
  4672  5605  5610    1
  4673  5606  5607    1
  4674  5606  5608    1
  4675  5606  5609    1
  4676  5611  5612    1
  4677  5611  5616    1
  4678  5612  5613    1
  4679  5612  5614    1
  4680  5612  5615    1
  4681  5617  5618    1
  4682  5617  5622    1
  4683  5618  5619    1
  4684  5618  5620    1
  4685  5618  5621    1
  4686  5623  5624    1
  4687  5623  5628    1
  4688  5624  5625    1
  4689  5624  5626    1
  4690  5624  5627    1
  4691  5629  5630    1
  4692  5629  5634    1
  4693  5630  5631    1
  4694  5630  5632    1
  4695  5630  5633    1
  4696  5635  5636    1
  4697  5635  5640    1
  4698  5636  5637    1
  4699  5636  5638    1
  4700  5636  5639    1
  4701  5641  5642    1
  4702  5641  5646    1
  4703  5642  5643    1
  4704  5642  5644    1
  4705  5642  5645    1
  4706  5647  5648    1
  4707  5647  5652    1
  4708  5648  5649    1
  4709  5648  5650    1
  4710  5648  5651    1
  4711  5653  5654    1
  4712  5653  5658    1
  4713  5654  5655    1
  4714  5654  5656    1
  4715  5654  5657    1
  4716  5659  5660    1
  4717  5659  5664    1
  4718  5660  5661    1
  4719  5660  5662    1
  4720  5660  5663    1
  4721  5665  5666    1
  4722  5665  5670    1
  4723  5666  5667    1
  4724  5666  5668    1
  4725  5666  5669    1
  4726  5671  5672    1
  4727  5671  5676    1
  4728  5672  5673    1
  4729  5672  5674    1
  4730  5672  5675    1
  4731  5677  5678    1
  4732  5677  5682    1
  4733  5678  5679    1
  4734  5678  5680    1
  4735  5678  5681    1
  4736  5683  5684    1
  4737  5683  5688    1
  4738  5684  5685    1
  4739  5684  5686    1
  4740  5684  5687    1
  4741  5689  5690    1
  4742  5689  5694    1
  4743  5690  5691    1
  4744  5690  5692    1
  4745  5690  5693    1
  4746  5695  5696    1
  4747  5695  5700    1
  4748  5696  5697    1
  4749  5696  5698    1
  4750  5696  5699    1
  4751  5701  5702    1
  4752  5701  5706    1
  4753  5702  5703    1
  4754  5702  5704    1
  4755  5702  5705    1
  4756  5707  5708    1
  4757  5707  5712    1
  4758  5708  5709    1
  4759  5708  5710    1
  4760  5708  5711    1
  4761  5713  5714    1
  4762  5713  5718    1
  4763  5714  5715    1
  4764  5714  5716    1
  4765  5714  5717    1
  4766  5719  5720    1
  4767  5719  5724    1
  4768  5720  5721    1
  4769  5720  5722    1
  4770  5720  5723    1
  4771  5725  5726    1
  4772  5725  5730    1
  4773  5726  5727    1
  4774  5726  5728    1
  4775  5726  5729    1
  4776  5731  5732    1
  4777  5731  5736    1
  4778  5732  5733    1
  4779  5732  5734    1
  4780  5732  5735    1
  4781  5737  5738    1
  4782  5737  5742    1
  4783  5738  5739    1
  4784  5738  5740    1
  4785  5738  5741    1
  4786  5743  5744    1
  4787  5743  5748    1
  4788  5744  5745    1
  4789  5744  5746    1
  4790  5744  5747    1
  4791  5749  5750    1
  4792  5749  5754    1
  4793  5750  5751    1
  4794  5750  5752    1
  4795  5750  5753    1
  4796  5755  5756    1
  4797  5755  5760    1
  4798  5756  5757    1
  4799  5756  5758    1
  4800  5756  5759    1
  4801  5761  5762    1
  4802  5761  5766    1
  4803  5762  5763    1
  4804  5762  5764    1
  4805  5762  5765    1
  4806  5767  5768    1
  4807  5767  5772    1
  4808  5768  5769    1
  4809  5768  5770    1
  4810  5768  5771    1
  4811  5773  5774    1
  4812  5773  5778    1
  4813  5774  5775    1
  4814  5774  5776    1
  4815  5774  5777    1
  4816  5779  5780    1
  4817  5779  5784    1
  4818  5780  5781    1
  4819  5780  5782    1
  4820  5780  5783    1
  4821  5785  5786    1
  4822  5785  5790    1
  4823  5786  5787    1
  4824  5786  5788    1
  4825  5786  5789    1
  4826  5791  5792    1
  4827  5791  5796    1
  4828  5792  5793    1
  4829  5792  5794    1
  4830  5792  5795    1
  4831  5797  5798    1
  4832  5797  5802    1
  4833  5798  5799    1
  4834  5798  5800    1
  4835  5798  5801    1
  4836  5803  5804    1
  4837  5803  5808    1
  4838  5804  5805    1
  4839  5804  5806    1
  4840  5804  5807    1
  4841  5809  5810    1
  4842  5809  5814    1
  4843  5810  5811    1
  4844  5810  5812    1
  4845  5810  5813    1
  4846  5815  5816    1
  4847  5815  5820    1
  4848  5816  5817    1
  4849  5816  5818    1
  4850  5816  5819    1
  4851  5821  5822    1
  4852  5821  5826    1
  4853  5822  5823    1
  4854  5822  5824    1
  4855  5822  5825    1
  4856  5827  5828    1
  4857  5827  5832    1
  4858  5828  5829    1
  4859  5828  5830    1
  4860  5828  5831    1
  4861  5833  5834    1
  4862  5833  5838    1
  4863  5834  5835    1
  4864  5834  5836    1
  4865  5834  5837    1
  4866  5839  5840    1
  4867  5839  5844    1
  4868  5840  5841    1
  4869  5840  5842    1
  4870  5840  5843    1
  4871  5845  5846    1
  4872  5845  5850    1
  4873  5846  5847    1
  4874  5846  5848    1
  4875  5846  5849    1
  4876  5851  5852    1
  4877  5851  5856    1
  4878  5852  5853    1
  4879  5852  5854    1
  4880  5852  5855    1
  4881  5857  5858    1
  4882  5857  5862    1
  4883  5858  5859    1
  4884  5858  5860    1
  4885  5858  5861    1
  4886  5863  5864    1
  4887  5863  5868    1
  4888  5864  5865    1
  4889  5864  5866    1
  4890  5864  5867    1
  4891  5869  5870    1
  4892  5869  5874    1
  4893  5870  5871    1
  4894  5870  5872    1
  4895  5870  5873    1
  4896  5875  5876    1
  4897  5875  5880    1
  4898  5876  5877    1
  4899  5876  5878    1
  4900  5876  5879    1
  4901  5881  5882    1
  4902  5881  5886    1
  4903  5882  5883    1
  4904  5882  5884    1
  4905  5882  5885    1
  4906  5887  5888    1
  4907  5887  5892    1
  4908  5888  5889    1
  4909  5888  5890    1
  4910  5888  5891    1
  4911  5893  5894    1
  4912  5893  5898    1
  4913  5894  5895    1
  4914  5894  5896    1
  4915  5894  5897    1
  4916  5899  5900    1
  4917  5899  5904    1
  4918  5900  5901    1
  4919  5900  5902    1
  4920  5900  5903    1
  4921  5905  5906    1
  4922  5905  5910    1
  4923  5906  5907    1
  4924  5906  5908    1
  4925  5906  5909    1
  4926  5911  5912    1
  4927  5911  5916    1
  4928  5912  5913    1
  4929  5912  5914    1
  4930  5912  5915    1
  4931  5917  5918    1
  4932  5917  5922    1
  4933  5918  5919    1
  4934  5918  5920    1
  4935  5918  5921    1
  4936  5923  5924    1
  4937  5923  5928    1
  4938  5924  5925    1
  4939  5924  5926    1
  4940  5924  5927    1
  4941  5929  5930    1
  4942  5929  5934    1
  4943  5930  5931    1
  4944  5930  5932    1
  4945  5930  5933    1
  4946  5935  5936    1
  4947  5935  5940    1
  4948  5936  5937    1
  4949  5936  5938    1
  4950  5936  5939    1
  4951  5941  5942    1
  4952  5941  5946    1
  4953  5942  5943    1
  4954  5942  5944    1
  4955  5942  5945    1
  4956  5947  5948    1
  4957  5947  5952    1
  4958  5948  5949    1
  4959  5948  5950    1
  4960  5948  5951    1
  4961  5953  5954    1
  4962  5953  5958    1
  4963  5954  5955    1
  4964  5954  5956    1
  4965  5954  5957    1
  4966  5959  5960    1
  4967  5959  5964    1
  4968  5960  5961    1
  4969  5960  5962    1
  4970  5960  5963    1
  4971  5965  5966    1
  4972  5965  5970    1
  4973  5966  5967    1
  4974  5966  5968    1
  4975  5966  5969    1
