@<TRIPOS>MOLECULE
*****
 5454 4545 0 0 0
SMALL
GASTEIGER

@<TRIPOS>ATOM
      1 O           2.3083   -0.5692   -0.5714 O.3     1  UNL1       -0.3982
      2 C           0.8925   -0.5692   -0.5714 C.3     1  UNL1        0.0330
      3 H           0.5272   -0.6580   -1.5976 H       1  UNL1        0.0521
      4 H           0.5273    0.3575   -0.1222 H       1  UNL1        0.0521
      5 H           0.5372   -1.4202    0.0144 H       1  UNL1        0.0521
      6 H           2.5940    0.1964   -1.0984 H       1  UNL1        0.2090
      7 O           2.4333   -0.6942    2.3510 O.3     2  UNL2       -0.3982
      8 C           1.0175   -0.6942    2.3510 C.3     2  UNL2        0.0330
      9 H           0.6522   -0.7830    1.3248 H       2  UNL2        0.0521
     10 H           0.6523    0.2325    2.8002 H       2  UNL2        0.0521
     11 H           0.6622   -1.5452    2.9368 H       2  UNL2        0.0521
     12 H           2.7190    0.0714    1.8240 H       2  UNL2        0.2090
     13 O           1.1227   -0.0373    6.1071 O.3     3  UNL3       -0.3982
     14 C           1.3019   -0.8691    4.9756 C.3     3  UNL3        0.0330
     15 H           2.3532   -1.1569    4.8965 H       3  UNL3        0.0521
     16 H           0.9911   -0.3332    4.0754 H       3  UNL3        0.0521
     17 H           0.6888   -1.7657    5.0930 H       3  UNL3        0.0521
     18 H           1.6786    0.7494    5.9742 H       3  UNL3        0.2090
     19 O           2.3083   -0.5495    7.9998 O.3     4  UNL4       -0.3982
     20 C           0.8925   -0.5495    7.9998 C.3     4  UNL4        0.0330
     21 H           0.5272    0.4482    7.7441 H       4  UNL4        0.0521
     22 H           0.5273   -0.8409    8.9876 H       4  UNL4        0.0521
     23 H           0.5372   -1.2668    7.2562 H       4  UNL4        0.0521
     24 H           2.5940    0.0958    8.6687 H       4  UNL4        0.2090
     25 O           0.4333   -0.4245   11.0806 O.3     5  UNL5       -0.3982
     26 C          -0.9825   -0.4245   11.0806 C.3     5  UNL5        0.0330
     27 H          -1.3478   -1.1935   11.7658 H       5  UNL5        0.0521
     28 H          -1.3477   -0.6192   10.0693 H       5  UNL5        0.0521
     29 H          -1.3378    0.5541   11.4118 H       5  UNL5        0.0521
     30 H           0.7190   -1.3049   10.7826 H       5  UNL5        0.2090
     31 O           0.4333   -0.4245   14.0029 O.3     6  UNL6       -0.3982
     32 C          -0.9825   -0.4245   14.0029 C.3     6  UNL6        0.0330
     33 H          -1.3478   -1.1935   14.6881 H       6  UNL6        0.0521
     34 H          -1.3477   -0.6192   12.9916 H       6  UNL6        0.0521
     35 H          -1.3378    0.5541   14.3341 H       6  UNL6        0.0521
     36 H           0.7190   -1.3049   13.7049 H       6  UNL6        0.2090
     37 O           2.4333   -0.5041   17.0144 O.3     7  UNL7       -0.3982
     38 C           1.0175   -0.5041   17.0144 C.3     7  UNL7        0.0330
     39 H           0.6522   -1.5310   16.9338 H       7  UNL7        0.0521
     40 H           0.6523    0.0908   16.1738 H       7  UNL7        0.0521
     41 H           0.6622   -0.0657   17.9498 H       7  UNL7        0.0521
     42 H           2.7190   -0.8986   16.1728 H       7  UNL7        0.2090
     43 O           2.0740   -0.7279   18.9971 O.3     8  UNL8       -0.3982
     44 C           1.2827   -0.4148   20.1286 C.3     8  UNL8        0.0330
     45 H           0.9861   -1.3376   20.6335 H       8  UNL8        0.0521
     46 H           0.3967    0.1410   19.8123 H       8  UNL8        0.0521
     47 H           1.8705    0.2002   20.8141 H       8  UNL8        0.0521
     48 H           1.5262   -1.2737   18.4076 H       8  UNL8        0.2090
     49 O           2.3083   -0.5692   22.8076 O.3     9  UNL9       -0.3982
     50 C           0.8925   -0.5692   22.8076 C.3     9  UNL9        0.0330
     51 H           0.5272   -0.6580   21.7814 H       9  UNL9        0.0521
     52 H           0.5273    0.3575   23.2568 H       9  UNL9        0.0521
     53 H           0.5372   -1.4202   23.3934 H       9  UNL9        0.0521
     54 H           2.5940    0.1964   22.2806 H       9  UNL9        0.2090
     55 O           2.4333   -0.6942   25.7300 O.3    10  UNL10      -0.3982
     56 C           1.0175   -0.6942   25.7300 C.3    10  UNL10       0.0330
     57 H           0.6522   -0.7830   24.7038 H      10  UNL10       0.0521
     58 H           0.6523    0.2325   26.1792 H      10  UNL10       0.0521
     59 H           0.6622   -1.5452   26.3158 H      10  UNL10       0.0521
     60 H           2.7190    0.0714   25.2030 H      10  UNL10       0.2090
     61 O           2.4333   -0.4245   28.6148 O.3    11  UNL11      -0.3982
     62 C           1.0175   -0.4245   28.6148 C.3    11  UNL11       0.0330
     63 H           0.6522   -1.1935   29.3000 H      11  UNL11       0.0521
     64 H           0.6523   -0.6192   27.6035 H      11  UNL11       0.0521
     65 H           0.6622    0.5541   28.9460 H      11  UNL11       0.0521
     66 H           2.7190   -1.3049   28.3168 H      11  UNL11       0.2090
     67 O           0.4333    2.6197   -0.6090 O.3    12  UNL12      -0.3982
     68 C          -0.9825    2.6197   -0.6090 C.3    12  UNL12       0.0330
     69 H          -1.3478    1.8507    0.0762 H      12  UNL12       0.0521
     70 H          -1.3477    2.4250   -1.6203 H      12  UNL12       0.0521
     71 H          -1.3378    3.5983   -0.2778 H      12  UNL12       0.0521
     72 H           0.7190    1.7393   -0.9070 H      12  UNL12       0.2090
     73 O           0.4333    2.6197    2.3134 O.3    13  UNL13      -0.3982
     74 C          -0.9825    2.6197    2.3134 C.3    13  UNL13       0.0330
     75 H          -1.3478    1.8507    2.9986 H      13  UNL13       0.0521
     76 H          -1.3477    2.4250    1.3021 H      13  UNL13       0.0521
     77 H          -1.3378    3.5983    2.6446 H      13  UNL13       0.0521
     78 H           0.7190    1.7393    2.0154 H      13  UNL13       0.2090
     79 O           0.4333    2.6197    5.2358 O.3    14  UNL14      -0.3982
     80 C          -0.9825    2.6197    5.2358 C.3    14  UNL14       0.0330
     81 H          -1.3478    1.8507    5.9210 H      14  UNL14       0.0521
     82 H          -1.3477    2.4250    4.2245 H      14  UNL14       0.0521
     83 H          -1.3378    3.5983    5.5670 H      14  UNL14       0.0521
     84 H           0.7190    1.7393    4.9378 H      14  UNL14       0.2090
     85 O           0.4333    2.6197    8.1582 O.3    15  UNL15      -0.3982
     86 C          -0.9825    2.6197    8.1582 C.3    15  UNL15       0.0330
     87 H          -1.3478    1.8507    8.8434 H      15  UNL15       0.0521
     88 H          -1.3477    2.4250    7.1469 H      15  UNL15       0.0521
     89 H          -1.3378    3.5983    8.4894 H      15  UNL15       0.0521
     90 H           0.7190    1.7393    7.8602 H      15  UNL15       0.2090
     91 O           1.8422    1.6197   11.3704 O.3    16  UNL16      -0.3982
     92 C           1.0509    2.6847   10.8763 C.3    16  UNL16       0.0330
     93 H           0.9392    2.5851    9.7937 H      16  UNL16       0.0521
     94 H           1.5287    3.6373   11.1179 H      16  UNL16       0.0521
     95 H           0.0660    2.6438   11.3473 H      16  UNL16       0.0521
     96 H           2.7093    1.6821   10.9348 H      16  UNL16       0.2090
     97 O           0.4333    2.6197   14.0029 O.3    17  UNL17      -0.3982
     98 C          -0.9825    2.6197   14.0029 C.3    17  UNL17       0.0330
     99 H          -1.3478    1.8507   14.6881 H      17  UNL17       0.0521
    100 H          -1.3477    2.4250   12.9916 H      17  UNL17       0.0521
    101 H          -1.3378    3.5983   14.3341 H      17  UNL17       0.0521
    102 H           0.7190    1.7393   13.7049 H      17  UNL17       0.2090
    103 O           0.4333    2.6197   16.9253 O.3    18  UNL18      -0.3982
    104 C          -0.9825    2.6197   16.9253 C.3    18  UNL18       0.0330
    105 H          -1.3478    1.8507   17.6105 H      18  UNL18       0.0521
    106 H          -1.3477    2.4250   15.9140 H      18  UNL18       0.0521
    107 H          -1.3378    3.5983   17.2565 H      18  UNL18       0.0521
    108 H           0.7190    1.7393   16.6273 H      18  UNL18       0.2090
    109 O           0.4333    2.6197   19.8477 O.3    19  UNL19      -0.3982
    110 C          -0.9825    2.6197   19.8477 C.3    19  UNL19       0.0330
    111 H          -1.3478    1.8507   20.5329 H      19  UNL19       0.0521
    112 H          -1.3477    2.4250   18.8364 H      19  UNL19       0.0521
    113 H          -1.3378    3.5983   20.1789 H      19  UNL19       0.0521
    114 H           0.7190    1.7393   19.5497 H      19  UNL19       0.2090
    115 O           0.4333    2.6197   22.7701 O.3    20  UNL20      -0.3982
    116 C          -0.9825    2.6197   22.7701 C.3    20  UNL20       0.0330
    117 H          -1.3478    1.8507   23.4552 H      20  UNL20       0.0521
    118 H          -1.3477    2.4250   21.7588 H      20  UNL20       0.0521
    119 H          -1.3378    3.5983   23.1012 H      20  UNL20       0.0521
    120 H           0.7190    1.7393   22.4720 H      20  UNL20       0.2090
    121 O           0.4333    2.6197   25.6924 O.3    21  UNL21      -0.3982
    122 C          -0.9825    2.6197   25.6924 C.3    21  UNL21       0.0330
    123 H          -1.3478    1.8507   26.3776 H      21  UNL21       0.0521
    124 H          -1.3477    2.4250   24.6811 H      21  UNL21       0.0521
    125 H          -1.3378    3.5983   26.0236 H      21  UNL21       0.0521
    126 H           0.7190    1.7393   25.3944 H      21  UNL21       0.2090
    127 O           0.4333    2.6197   28.6148 O.3    22  UNL22      -0.3982
    128 C          -0.9825    2.6197   28.6148 C.3    22  UNL22       0.0330
    129 H          -1.3478    1.8507   29.3000 H      22  UNL22       0.0521
    130 H          -1.3477    2.4250   27.6035 H      22  UNL22       0.0521
    131 H          -1.3378    3.5983   28.9460 H      22  UNL22       0.0521
    132 H           0.7190    1.7393   28.3168 H      22  UNL22       0.2090
    133 O           0.4333    5.6640   -0.6090 O.3    23  UNL23      -0.3982
    134 C          -0.9825    5.6640   -0.6090 C.3    23  UNL23       0.0330
    135 H          -1.3478    4.8950    0.0762 H      23  UNL23       0.0521
    136 H          -1.3477    5.4693   -1.6203 H      23  UNL23       0.0521
    137 H          -1.3378    6.6426   -0.2778 H      23  UNL23       0.0521
    138 H           0.7190    4.7836   -0.9070 H      23  UNL23       0.2090
    139 O           0.4333    5.6640    2.3134 O.3    24  UNL24      -0.3982
    140 C          -0.9825    5.6640    2.3134 C.3    24  UNL24       0.0330
    141 H          -1.3478    4.8950    2.9986 H      24  UNL24       0.0521
    142 H          -1.3477    5.4693    1.3021 H      24  UNL24       0.0521
    143 H          -1.3378    6.6426    2.6446 H      24  UNL24       0.0521
    144 H           0.7190    4.7836    2.0154 H      24  UNL24       0.2090
    145 O           0.4333    5.6640    5.2358 O.3    25  UNL25      -0.3982
    146 C          -0.9825    5.6640    5.2358 C.3    25  UNL25       0.0330
    147 H          -1.3478    4.8950    5.9210 H      25  UNL25       0.0521
    148 H          -1.3477    5.4693    4.2245 H      25  UNL25       0.0521
    149 H          -1.3378    6.6426    5.5670 H      25  UNL25       0.0521
    150 H           0.7190    4.7836    4.9378 H      25  UNL25       0.2090
    151 O           0.7935    5.3766    8.9045 O.3    26  UNL26      -0.3982
    152 C           1.6434    5.4171    7.7729 C.3    26  UNL26       0.0330
    153 H           2.0995    6.4071    7.6939 H      26  UNL26       0.0521
    154 H           1.0639    5.1983    6.8728 H      26  UNL26       0.0521
    155 H           2.4275    4.6654    7.8904 H      26  UNL26       0.0521
    156 H           0.1084    6.0538    8.7716 H      26  UNL26       0.2090
    157 O           0.4333    5.6640   11.0806 O.3    27  UNL27      -0.3982
    158 C          -0.9825    5.6640   11.0806 C.3    27  UNL27       0.0330
    159 H          -1.3478    4.8950   11.7658 H      27  UNL27       0.0521
    160 H          -1.3477    5.4693   10.0693 H      27  UNL27       0.0521
    161 H          -1.3378    6.6426   11.4118 H      27  UNL27       0.0521
    162 H           0.7190    4.7836   10.7826 H      27  UNL27       0.2090
    163 O           1.8422    5.8370   14.8742 O.3    28  UNL28      -0.3982
    164 C           1.0509    5.5239   13.7427 C.3    28  UNL28       0.0330
    165 H           0.9392    4.4397   13.6636 H      28  UNL28       0.0521
    166 H           1.5287    5.9183   12.8426 H      28  UNL28       0.0521
    167 H           0.0660    5.9819   13.8602 H      28  UNL28       0.0521
    168 H           2.7093    5.4175   14.7414 H      28  UNL28       0.2090
    169 O           2.3083    5.5193   16.9628 O.3    29  UNL29      -0.3982
    170 C           0.8925    5.5193   16.9628 C.3    29  UNL29       0.0330
    171 H           0.5272    5.4305   15.9367 H      29  UNL29       0.0521
    172 H           0.5273    6.4460   17.4121 H      29  UNL29       0.0521
    173 H           0.5372    4.6683   17.5486 H      29  UNL29       0.0521
    174 H           2.5940    6.2849   16.4358 H      29  UNL29       0.2090
    175 O           1.1227    6.0512   20.7190 O.3    30  UNL30      -0.3982
    176 C           1.3019    5.2194   19.5874 C.3    30  UNL30       0.0330
    177 H           2.3532    4.9316   19.5084 H      30  UNL30       0.0521
    178 H           0.9911    5.7553   18.6873 H      30  UNL30       0.0521
    179 H           0.6888    4.3228   19.7049 H      30  UNL30       0.0521
    180 H           1.6786    6.8379   20.5861 H      30  UNL30       0.2090
    181 O           2.3083    5.5390   22.6116 O.3    31  UNL31      -0.3982
    182 C           0.8925    5.5390   22.6116 C.3    31  UNL31       0.0330
    183 H           0.5272    6.5367   22.3560 H      31  UNL31       0.0521
    184 H           0.5273    5.2476   23.5994 H      31  UNL31       0.0521
    185 H           0.5372    4.8217   21.8681 H      31  UNL31       0.0521
    186 H           2.5940    6.1843   23.2806 H      31  UNL31       0.2090
    187 O           1.8422    6.4794   25.4814 O.3    32  UNL32      -0.3982
    188 C           1.0509    5.3118   25.6048 C.3    32  UNL32       0.0330
    189 H           0.9392    5.0563   26.6615 H      32  UNL32       0.0521
    190 H           1.5287    4.4885   25.0683 H      32  UNL32       0.0521
    191 H           0.0660    5.5028   25.1723 H      32  UNL32       0.0521
    192 H           2.7093    6.2796   25.8734 H      32  UNL32       0.2090
    193 O           2.3083    5.7355   28.4437 O.3    33  UNL33      -0.3982
    194 C           0.8925    5.7355   28.4437 C.3    33  UNL33       0.0330
    195 H           0.5272    6.1511   29.3861 H      33  UNL33       0.0521
    196 H           0.5273    4.7133   28.3181 H      33  UNL33       0.0521
    197 H           0.5372    6.3515   27.6143 H      33  UNL33       0.0521
    198 H           2.5940    5.1813   29.1899 H      33  UNL33       0.2090
    199 O           0.4333    8.7082   -0.6090 O.3    34  UNL34      -0.3982
    200 C          -0.9825    8.7082   -0.6090 C.3    34  UNL34       0.0330
    201 H          -1.3478    7.9392    0.0762 H      34  UNL34       0.0521
    202 H          -1.3477    8.5135   -1.6203 H      34  UNL34       0.0521
    203 H          -1.3378    9.6868   -0.2778 H      34  UNL34       0.0521
    204 H           0.7190    7.8278   -0.9070 H      34  UNL34       0.2090
    205 O           0.4333    8.7082    2.3134 O.3    35  UNL35      -0.3982
    206 C          -0.9825    8.7082    2.3134 C.3    35  UNL35       0.0330
    207 H          -1.3478    7.9392    2.9986 H      35  UNL35       0.0521
    208 H          -1.3477    8.5135    1.3021 H      35  UNL35       0.0521
    209 H          -1.3378    9.6868    2.6446 H      35  UNL35       0.0521
    210 H           0.7190    7.8278    2.0154 H      35  UNL35       0.2090
    211 O           0.4333    8.7082    5.2358 O.3    36  UNL36      -0.3982
    212 C          -0.9825    8.7082    5.2358 C.3    36  UNL36       0.0330
    213 H          -1.3478    7.9392    5.9210 H      36  UNL36       0.0521
    214 H          -1.3477    8.5135    4.2245 H      36  UNL36       0.0521
    215 H          -1.3378    9.6868    5.5670 H      36  UNL36       0.0521
    216 H           0.7190    7.8278    4.9378 H      36  UNL36       0.2090
    217 O           0.4333    8.7082    8.1582 O.3    37  UNL37      -0.3982
    218 C          -0.9825    8.7082    8.1582 C.3    37  UNL37       0.0330
    219 H          -1.3478    7.9392    8.8434 H      37  UNL37       0.0521
    220 H          -1.3477    8.5135    7.1469 H      37  UNL37       0.0521
    221 H          -1.3378    9.6868    8.4894 H      37  UNL37       0.0521
    222 H           0.7190    7.8278    7.8602 H      37  UNL37       0.2090
    223 O           0.4333    8.7082   11.0806 O.3    38  UNL38      -0.3982
    224 C          -0.9825    8.7082   11.0806 C.3    38  UNL38       0.0330
    225 H          -1.3478    7.9392   11.7658 H      38  UNL38       0.0521
    226 H          -1.3477    8.5135   10.0693 H      38  UNL38       0.0521
    227 H          -1.3378    9.6868   11.4118 H      38  UNL38       0.0521
    228 H           0.7190    7.8278   10.7826 H      38  UNL38       0.2090
    229 O           0.4333    8.7082   14.0029 O.3    39  UNL39      -0.3982
    230 C          -0.9825    8.7082   14.0029 C.3    39  UNL39       0.0330
    231 H          -1.3478    7.9392   14.6881 H      39  UNL39       0.0521
    232 H          -1.3477    8.5135   12.9916 H      39  UNL39       0.0521
    233 H          -1.3378    9.6868   14.3341 H      39  UNL39       0.0521
    234 H           0.7190    7.8278   13.7049 H      39  UNL39       0.2090
    235 O           0.4333    8.7082   16.9253 O.3    40  UNL40      -0.3982
    236 C          -0.9825    8.7082   16.9253 C.3    40  UNL40       0.0330
    237 H          -1.3478    7.9392   17.6105 H      40  UNL40       0.0521
    238 H          -1.3477    8.5135   15.9140 H      40  UNL40       0.0521
    239 H          -1.3378    9.6868   17.2565 H      40  UNL40       0.0521
    240 H           0.7190    7.8278   16.6273 H      40  UNL40       0.2090
    241 O           0.4333    8.7082   19.8477 O.3    41  UNL41      -0.3982
    242 C          -0.9825    8.7082   19.8477 C.3    41  UNL41       0.0330
    243 H          -1.3478    7.9392   20.5329 H      41  UNL41       0.0521
    244 H          -1.3477    8.5135   18.8364 H      41  UNL41       0.0521
    245 H          -1.3378    9.6868   20.1789 H      41  UNL41       0.0521
    246 H           0.7190    7.8278   19.5497 H      41  UNL41       0.2090
    247 O           0.4333    8.7082   22.7701 O.3    42  UNL42      -0.3982
    248 C          -0.9825    8.7082   22.7701 C.3    42  UNL42       0.0330
    249 H          -1.3478    7.9392   23.4552 H      42  UNL42       0.0521
    250 H          -1.3477    8.5135   21.7588 H      42  UNL42       0.0521
    251 H          -1.3378    9.6868   23.1012 H      42  UNL42       0.0521
    252 H           0.7190    7.8278   22.4720 H      42  UNL42       0.2090
    253 O           0.4333    8.7082   25.6924 O.3    43  UNL43      -0.3982
    254 C          -0.9825    8.7082   25.6924 C.3    43  UNL43       0.0330
    255 H          -1.3478    7.9392   26.3776 H      43  UNL43       0.0521
    256 H          -1.3477    8.5135   24.6811 H      43  UNL43       0.0521
    257 H          -1.3378    9.6868   26.0236 H      43  UNL43       0.0521
    258 H           0.7190    7.8278   25.3944 H      43  UNL43       0.2090
    259 O           0.4333    8.7082   28.6148 O.3    44  UNL44      -0.3982
    260 C          -0.9825    8.7082   28.6148 C.3    44  UNL44       0.0330
    261 H          -1.3478    7.9392   29.3000 H      44  UNL44       0.0521
    262 H          -1.3477    8.5135   27.6035 H      44  UNL44       0.0521
    263 H          -1.3378    9.6868   28.9460 H      44  UNL44       0.0521
    264 H           0.7190    7.8278   28.3168 H      44  UNL44       0.2090
    265 O          -1.4042   12.2599    0.3134 O.3    45  UNL45      -0.3982
    266 C          -0.5569   11.1256    0.3134 C.3    45  UNL45       0.0330
    267 H           0.2778   11.2932    0.9986 H      45  UNL45       0.0521
    268 H          -0.1824   10.9496   -0.6979 H      45  UNL45       0.0521
    269 H          -1.1283   10.2553    0.6446 H      45  UNL45       0.0521
    270 H          -0.8698   13.0157    0.0154 H      45  UNL45       0.2090
    271 O           0.4333   11.7525    3.2358 O.3    46  UNL46      -0.3982
    272 C          -0.9825   11.7525    3.2358 C.3    46  UNL46       0.0330
    273 H          -1.3478   10.9835    3.9210 H      46  UNL46       0.0521
    274 H          -1.3477   11.5578    2.2245 H      46  UNL46       0.0521
    275 H          -1.3378   12.7311    3.5670 H      46  UNL46       0.0521
    276 H           0.7190   10.8721    2.9378 H      46  UNL46       0.2090
    277 O           0.4333   11.7525    6.1582 O.3    47  UNL47      -0.3982
    278 C          -0.9825   11.7525    6.1582 C.3    47  UNL47       0.0330
    279 H          -1.3478   10.9835    6.8434 H      47  UNL47       0.0521
    280 H          -1.3477   11.5578    5.1469 H      47  UNL47       0.0521
    281 H          -1.3378   12.7311    6.4894 H      47  UNL47       0.0521
    282 H           0.7190   10.8721    5.8602 H      47  UNL47       0.2090
    283 O           0.4333   11.7525    9.0806 O.3    48  UNL48      -0.3982
    284 C          -0.9825   11.7525    9.0806 C.3    48  UNL48       0.0330
    285 H          -1.3478   10.9835    9.7658 H      48  UNL48       0.0521
    286 H          -1.3477   11.5578    8.0693 H      48  UNL48       0.0521
    287 H          -1.3378   12.7311    9.4118 H      48  UNL48       0.0521
    288 H           0.7190   10.8721    8.7826 H      48  UNL48       0.2090
    289 O           0.4333   11.7525   12.0029 O.3    49  UNL49      -0.3982
    290 C          -0.9825   11.7525   12.0029 C.3    49  UNL49       0.0330
    291 H          -1.3478   10.9835   12.6881 H      49  UNL49       0.0521
    292 H          -1.3477   11.5578   10.9916 H      49  UNL49       0.0521
    293 H          -1.3378   12.7311   12.3341 H      49  UNL49       0.0521
    294 H           0.7190   10.8721   11.7049 H      49  UNL49       0.2090
    295 O           0.4333   11.7525   14.9253 O.3    50  UNL50      -0.3982
    296 C          -0.9825   11.7525   14.9253 C.3    50  UNL50       0.0330
    297 H          -1.3478   10.9835   15.6105 H      50  UNL50       0.0521
    298 H          -1.3477   11.5578   13.9140 H      50  UNL50       0.0521
    299 H          -1.3378   12.7311   15.2565 H      50  UNL50       0.0521
    300 H           0.7190   10.8721   14.6273 H      50  UNL50       0.2090
    301 O           0.4333   11.7525   17.8477 O.3    51  UNL51      -0.3982
    302 C          -0.9825   11.7525   17.8477 C.3    51  UNL51       0.0330
    303 H          -1.3478   10.9835   18.5329 H      51  UNL51       0.0521
    304 H          -1.3477   11.5578   16.8364 H      51  UNL51       0.0521
    305 H          -1.3378   12.7311   18.1789 H      51  UNL51       0.0521
    306 H           0.7190   10.8721   17.5497 H      51  UNL51       0.2090
    307 O          -1.4042   12.2599   20.7701 O.3    52  UNL52      -0.3982
    308 C          -0.5569   11.1256   20.7701 C.3    52  UNL52       0.0330
    309 H           0.2778   11.2932   21.4552 H      52  UNL52       0.0521
    310 H          -0.1824   10.9496   19.7588 H      52  UNL52       0.0521
    311 H          -1.1283   10.2553   21.1012 H      52  UNL52       0.0521
    312 H          -0.8698   13.0157   20.4720 H      52  UNL52       0.2090
    313 O           0.4333   11.7525   23.6924 O.3    53  UNL53      -0.3982
    314 C          -0.9825   11.7525   23.6924 C.3    53  UNL53       0.0330
    315 H          -1.3478   10.9835   24.3776 H      53  UNL53       0.0521
    316 H          -1.3477   11.5578   22.6811 H      53  UNL53       0.0521
    317 H          -1.3378   12.7311   24.0236 H      53  UNL53       0.0521
    318 H           0.7190   10.8721   23.3944 H      53  UNL53       0.2090
    319 O           1.3023   10.6598   27.0962 O.3    54  UNL54      -0.3982
    320 C           1.5522   11.8346   26.3466 C.3    54  UNL54       0.0330
    321 H           1.5267   12.7031   27.0094 H      54  UNL54       0.0521
    322 H           0.7954   11.9370   25.5651 H      54  UNL54       0.0521
    323 H           2.5401   11.7590   25.8864 H      54  UNL54       0.0521
    324 H           0.4195   10.7559   27.4922 H      54  UNL54       0.2090
    325 O           0.4333   14.7967   -0.6090 O.3    55  UNL55      -0.3982
    326 C          -0.9825   14.7967   -0.6090 C.3    55  UNL55       0.0330
    327 H          -1.3478   14.0277    0.0762 H      55  UNL55       0.0521
    328 H          -1.3477   14.6020   -1.6203 H      55  UNL55       0.0521
    329 H          -1.3378   15.7753   -0.2778 H      55  UNL55       0.0521
    330 H           0.7190   13.9163   -0.9070 H      55  UNL55       0.2090
    331 O           0.4333   14.7967    2.3134 O.3    56  UNL56      -0.3982
    332 C          -0.9825   14.7967    2.3134 C.3    56  UNL56       0.0330
    333 H          -1.3478   14.0277    2.9986 H      56  UNL56       0.0521
    334 H          -1.3477   14.6020    1.3021 H      56  UNL56       0.0521
    335 H          -1.3378   15.7753    2.6446 H      56  UNL56       0.0521
    336 H           0.7190   13.9163    2.0154 H      56  UNL56       0.2090
    337 O           0.4333   14.7967    5.2358 O.3    57  UNL57      -0.3982
    338 C          -0.9825   14.7967    5.2358 C.3    57  UNL57       0.0330
    339 H          -1.3478   14.0277    5.9210 H      57  UNL57       0.0521
    340 H          -1.3477   14.6020    4.2245 H      57  UNL57       0.0521
    341 H          -1.3378   15.7753    5.5670 H      57  UNL57       0.0521
    342 H           0.7190   13.9163    4.9378 H      57  UNL57       0.2090
    343 O           0.4333   14.7967    8.1582 O.3    58  UNL58      -0.3982
    344 C          -0.9825   14.7967    8.1582 C.3    58  UNL58       0.0330
    345 H          -1.3478   14.0277    8.8434 H      58  UNL58       0.0521
    346 H          -1.3477   14.6020    7.1469 H      58  UNL58       0.0521
    347 H          -1.3378   15.7753    8.4894 H      58  UNL58       0.0521
    348 H           0.7190   13.9163    7.8602 H      58  UNL58       0.2090
    349 O           0.4333   14.7967   11.0806 O.3    59  UNL59      -0.3982
    350 C          -0.9825   14.7967   11.0806 C.3    59  UNL59       0.0330
    351 H          -1.3478   14.0277   11.7658 H      59  UNL59       0.0521
    352 H          -1.3477   14.6020   10.0693 H      59  UNL59       0.0521
    353 H          -1.3378   15.7753   11.4118 H      59  UNL59       0.0521
    354 H           0.7190   13.9163   10.7826 H      59  UNL59       0.2090
    355 O           0.4333   14.7967   14.0029 O.3    60  UNL60      -0.3982
    356 C          -0.9825   14.7967   14.0029 C.3    60  UNL60       0.0330
    357 H          -1.3478   14.0277   14.6881 H      60  UNL60       0.0521
    358 H          -1.3477   14.6020   12.9916 H      60  UNL60       0.0521
    359 H          -1.3378   15.7753   14.3341 H      60  UNL60       0.0521
    360 H           0.7190   13.9163   13.7049 H      60  UNL60       0.2090
    361 O           0.4333   14.7967   16.9253 O.3    61  UNL61      -0.3982
    362 C          -0.9825   14.7967   16.9253 C.3    61  UNL61       0.0330
    363 H          -1.3478   14.0277   17.6105 H      61  UNL61       0.0521
    364 H          -1.3477   14.6020   15.9140 H      61  UNL61       0.0521
    365 H          -1.3378   15.7753   17.2565 H      61  UNL61       0.0521
    366 H           0.7190   13.9163   16.6273 H      61  UNL61       0.2090
    367 O           0.4333   14.7967   19.8477 O.3    62  UNL62      -0.3982
    368 C          -0.9825   14.7967   19.8477 C.3    62  UNL62       0.0330
    369 H          -1.3478   14.0277   20.5329 H      62  UNL62       0.0521
    370 H          -1.3477   14.6020   18.8364 H      62  UNL62       0.0521
    371 H          -1.3378   15.7753   20.1789 H      62  UNL62       0.0521
    372 H           0.7190   13.9163   19.5497 H      62  UNL62       0.2090
    373 O           0.4333   14.7967   22.7701 O.3    63  UNL63      -0.3982
    374 C          -0.9825   14.7967   22.7701 C.3    63  UNL63       0.0330
    375 H          -1.3478   14.0277   23.4552 H      63  UNL63       0.0521
    376 H          -1.3477   14.6020   21.7588 H      63  UNL63       0.0521
    377 H          -1.3378   15.7753   23.1012 H      63  UNL63       0.0521
    378 H           0.7190   13.9163   22.4720 H      63  UNL63       0.2090
    379 O           0.4333   14.7967   25.6924 O.3    64  UNL64      -0.3982
    380 C          -0.9825   14.7967   25.6924 C.3    64  UNL64       0.0330
    381 H          -1.3478   14.0277   26.3776 H      64  UNL64       0.0521
    382 H          -1.3477   14.6020   24.6811 H      64  UNL64       0.0521
    383 H          -1.3378   15.7753   26.0236 H      64  UNL64       0.0521
    384 H           0.7190   13.9163   25.3944 H      64  UNL64       0.2090
    385 O           0.4333   14.7967   28.6148 O.3    65  UNL65      -0.3982
    386 C          -0.9825   14.7967   28.6148 C.3    65  UNL65       0.0330
    387 H          -1.3478   14.0277   29.3000 H      65  UNL65       0.0521
    388 H          -1.3477   14.6020   27.6035 H      65  UNL65       0.0521
    389 H          -1.3378   15.7753   28.9460 H      65  UNL65       0.0521
    390 H           0.7190   13.9163   28.3168 H      65  UNL65       0.2090
    391 O           0.4333   17.8410   -0.6090 O.3    66  UNL66      -0.3982
    392 C          -0.9825   17.8410   -0.6090 C.3    66  UNL66       0.0330
    393 H          -1.3478   17.0720    0.0762 H      66  UNL66       0.0521
    394 H          -1.3477   17.6463   -1.6203 H      66  UNL66       0.0521
    395 H          -1.3378   18.8196   -0.2778 H      66  UNL66       0.0521
    396 H           0.7190   16.9606   -0.9070 H      66  UNL66       0.2090
    397 O           0.4333   17.8410    2.3134 O.3    67  UNL67      -0.3982
    398 C          -0.9825   17.8410    2.3134 C.3    67  UNL67       0.0330
    399 H          -1.3478   17.0720    2.9986 H      67  UNL67       0.0521
    400 H          -1.3477   17.6463    1.3021 H      67  UNL67       0.0521
    401 H          -1.3378   18.8196    2.6446 H      67  UNL67       0.0521
    402 H           0.7190   16.9606    2.0154 H      67  UNL67       0.2090
    403 O           0.4333   17.8410    5.2358 O.3    68  UNL68      -0.3982
    404 C          -0.9825   17.8410    5.2358 C.3    68  UNL68       0.0330
    405 H          -1.3478   17.0720    5.9210 H      68  UNL68       0.0521
    406 H          -1.3477   17.6463    4.2245 H      68  UNL68       0.0521
    407 H          -1.3378   18.8196    5.5670 H      68  UNL68       0.0521
    408 H           0.7190   16.9606    4.9378 H      68  UNL68       0.2090
    409 O           0.4333   17.8410    8.1582 O.3    69  UNL69      -0.3982
    410 C          -0.9825   17.8410    8.1582 C.3    69  UNL69       0.0330
    411 H          -1.3478   17.0720    8.8434 H      69  UNL69       0.0521
    412 H          -1.3477   17.6463    7.1469 H      69  UNL69       0.0521
    413 H          -1.3378   18.8196    8.4894 H      69  UNL69       0.0521
    414 H           0.7190   16.9606    7.8602 H      69  UNL69       0.2090
    415 O           2.4333   17.5713   11.1181 O.3    70  UNL70      -0.3982
    416 C           1.0175   17.5713   11.1181 C.3    70  UNL70       0.0330
    417 H           0.6522   17.4825   10.0919 H      70  UNL70       0.0521
    418 H           0.6523   18.4980   11.5673 H      70  UNL70       0.0521
    419 H           0.6622   16.7203   11.7039 H      70  UNL70       0.0521
    420 H           2.7190   18.3369   10.5911 H      70  UNL70       0.2090
    421 O           2.4333   17.5713   14.0405 O.3    71  UNL71      -0.3982
    422 C           1.0175   17.5713   14.0405 C.3    71  UNL71       0.0330
    423 H           0.6522   17.4825   13.0143 H      71  UNL71       0.0521
    424 H           0.6523   18.4980   14.4897 H      71  UNL71       0.0521
    425 H           0.6622   16.7203   14.6263 H      71  UNL71       0.0521
    426 H           2.7190   18.3369   13.5135 H      71  UNL71       0.2090
    427 O           2.4333   17.7614   17.0144 O.3    72  UNL72      -0.3982
    428 C           1.0175   17.7614   17.0144 C.3    72  UNL72       0.0330
    429 H           0.6522   16.7345   16.9338 H      72  UNL72       0.0521
    430 H           0.6523   18.3563   16.1738 H      72  UNL72       0.0521
    431 H           0.6622   18.1998   17.9498 H      72  UNL72       0.0521
    432 H           2.7190   17.3669   16.1728 H      72  UNL72       0.2090
    433 O           0.4333   17.8410   19.8477 O.3    73  UNL73      -0.3982
    434 C          -0.9825   17.8410   19.8477 C.3    73  UNL73       0.0330
    435 H          -1.3478   17.0720   20.5329 H      73  UNL73       0.0521
    436 H          -1.3477   17.6463   18.8364 H      73  UNL73       0.0521
    437 H          -1.3378   18.8196   20.1789 H      73  UNL73       0.0521
    438 H           0.7190   16.9606   19.5497 H      73  UNL73       0.2090
    439 O           0.4333   17.8410   22.7701 O.3    74  UNL74      -0.3982
    440 C          -0.9825   17.8410   22.7701 C.3    74  UNL74       0.0330
    441 H          -1.3478   17.0720   23.4552 H      74  UNL74       0.0521
    442 H          -1.3477   17.6463   21.7588 H      74  UNL74       0.0521
    443 H          -1.3378   18.8196   23.1012 H      74  UNL74       0.0521
    444 H           0.7190   16.9606   22.4720 H      74  UNL74       0.2090
    445 O           0.4333   17.8410   25.6924 O.3    75  UNL75      -0.3982
    446 C          -0.9825   17.8410   25.6924 C.3    75  UNL75       0.0330
    447 H          -1.3478   17.0720   26.3776 H      75  UNL75       0.0521
    448 H          -1.3477   17.6463   24.6811 H      75  UNL75       0.0521
    449 H          -1.3378   18.8196   26.0236 H      75  UNL75       0.0521
    450 H           0.7190   16.9606   25.3944 H      75  UNL75       0.2090
    451 O           0.4333   17.8410   28.6148 O.3    76  UNL76      -0.3982
    452 C          -0.9825   17.8410   28.6148 C.3    76  UNL76       0.0330
    453 H          -1.3478   17.0720   29.3000 H      76  UNL76       0.0521
    454 H          -1.3477   17.6463   27.6035 H      76  UNL76       0.0521
    455 H          -1.3378   18.8196   28.9460 H      76  UNL76       0.0521
    456 H           0.7190   16.9606   28.3168 H      76  UNL76       0.2090
    457 O           0.4333   20.8852   -0.6090 O.3    77  UNL77      -0.3982
    458 C          -0.9825   20.8852   -0.6090 C.3    77  UNL77       0.0330
    459 H          -1.3478   20.1162    0.0762 H      77  UNL77       0.0521
    460 H          -1.3477   20.6905   -1.6203 H      77  UNL77       0.0521
    461 H          -1.3378   21.8638   -0.2778 H      77  UNL77       0.0521
    462 H           0.7190   20.0048   -0.9070 H      77  UNL77       0.2090
    463 O           2.4333   20.6155    2.3510 O.3    78  UNL78      -0.3982
    464 C           1.0175   20.6155    2.3510 C.3    78  UNL78       0.0330
    465 H           0.6522   20.5268    1.3248 H      78  UNL78       0.0521
    466 H           0.6523   21.5422    2.8002 H      78  UNL78       0.0521
    467 H           0.6622   19.7645    2.9368 H      78  UNL78       0.0521
    468 H           2.7190   21.3812    1.8240 H      78  UNL78       0.2090
    469 O           2.4333   20.6155    5.2733 O.3    79  UNL79      -0.3982
    470 C           1.0175   20.6155    5.2733 C.3    79  UNL79       0.0330
    471 H           0.6522   20.5268    4.2472 H      79  UNL79       0.0521
    472 H           0.6523   21.5422    5.7226 H      79  UNL79       0.0521
    473 H           0.6622   19.7645    5.8591 H      79  UNL79       0.0521
    474 H           2.7190   21.3812    4.7463 H      79  UNL79       0.2090
    475 O           1.8422   21.0582    9.0295 O.3    80  UNL80      -0.3982
    476 C           1.0509   20.7452    7.8979 C.3    80  UNL80       0.0330
    477 H           0.9392   19.6609    7.8189 H      80  UNL80       0.0521
    478 H           1.5287   21.1396    6.9978 H      80  UNL80       0.0521
    479 H           0.0660   21.2032    8.0154 H      80  UNL80       0.0521
    480 H           2.7093   20.6387    8.8966 H      80  UNL80       0.2090
    481 O           2.4333   20.6937   10.8870 O.3    81  UNL81      -0.3982
    482 C           1.0175   20.6937   10.8870 C.3    81  UNL81       0.0330
    483 H           0.6522   21.7029   11.0930 H      81  UNL81       0.0521
    484 H           0.6523   20.0001   11.6482 H      81  UNL81       0.0521
    485 H           0.6622   20.3734    9.9047 H      81  UNL81       0.0521
    486 H           2.7190   20.9819   11.7706 H      81  UNL81       0.2090
    487 O           2.4333   20.8852   14.0029 O.3    82  UNL82      -0.3982
    488 C           1.0175   20.8852   14.0029 C.3    82  UNL82       0.0330
    489 H           0.6522   20.1162   14.6881 H      82  UNL82       0.0521
    490 H           0.6523   20.6905   12.9916 H      82  UNL82       0.0521
    491 H           0.6622   21.8638   14.3341 H      82  UNL82       0.0521
    492 H           2.7190   20.0048   13.7049 H      82  UNL82       0.2090
    493 O           0.4333   20.8852   16.9253 O.3    83  UNL83      -0.3982
    494 C          -0.9825   20.8852   16.9253 C.3    83  UNL83       0.0330
    495 H          -1.3478   20.1162   17.6105 H      83  UNL83       0.0521
    496 H          -1.3477   20.6905   15.9140 H      83  UNL83       0.0521
    497 H          -1.3378   21.8638   17.2565 H      83  UNL83       0.0521
    498 H           0.7190   20.0048   16.6273 H      83  UNL83       0.2090
    499 O           0.4333   20.8852   19.8477 O.3    84  UNL84      -0.3982
    500 C          -0.9825   20.8852   19.8477 C.3    84  UNL84       0.0330
    501 H          -1.3478   20.1162   20.5329 H      84  UNL84       0.0521
    502 H          -1.3477   20.6905   18.8364 H      84  UNL84       0.0521
    503 H          -1.3378   21.8638   20.1789 H      84  UNL84       0.0521
    504 H           0.7190   20.0048   19.5497 H      84  UNL84       0.2090
    505 O           2.4333   20.6155   22.8076 O.3    85  UNL85      -0.3982
    506 C           1.0175   20.6155   22.8076 C.3    85  UNL85       0.0330
    507 H           0.6522   20.5268   21.7814 H      85  UNL85       0.0521
    508 H           0.6523   21.5422   23.2568 H      85  UNL85       0.0521
    509 H           0.6622   19.7645   23.3934 H      85  UNL85       0.0521
    510 H           2.7190   21.3812   22.2806 H      85  UNL85       0.2090
    511 O           2.4333   20.6155   25.7300 O.3    86  UNL86      -0.3982
    512 C           1.0175   20.6155   25.7300 C.3    86  UNL86       0.0330
    513 H           0.6522   20.5268   24.7038 H      86  UNL86       0.0521
    514 H           0.6523   21.5422   26.1792 H      86  UNL86       0.0521
    515 H           0.6622   19.7645   26.3158 H      86  UNL86       0.0521
    516 H           2.7190   21.3812   25.2030 H      86  UNL86       0.2090
    517 O           0.5903   19.9932   28.6148 O.3    87  UNL87      -0.3982
    518 C           1.8481   20.6433   28.6148 C.3    87  UNL87       0.0330
    519 H           1.8195   21.4941   29.3000 H      87  UNL87       0.0521
    520 H           2.0831   20.9839   27.6035 H      87  UNL87       0.0521
    521 H           2.6130   19.9371   28.9460 H      87  UNL87       0.0521
    522 H          -0.0677   20.6442   28.3168 H      87  UNL87       0.2090
    523 O           1.1227   24.3167    0.2623 O.3    88  UNL88      -0.3982
    524 C           1.3019   23.4849   -0.8692 C.3    88  UNL88       0.0330
    525 H           2.3532   23.1971   -0.9482 H      88  UNL88       0.0521
    526 H           0.9911   24.0208   -1.7693 H      88  UNL88       0.0521
    527 H           0.6888   22.5883   -0.7517 H      88  UNL88       0.0521
    528 H           1.6786   25.1034    0.1295 H      88  UNL88       0.2090
    529 O           2.4333   23.9203    2.1943 O.3    89  UNL89      -0.3982
    530 C           1.0175   23.9203    2.1943 C.3    89  UNL89       0.0330
    531 H           0.6522   23.8824    3.2236 H      89  UNL89       0.0521
    532 H           0.6523   23.0558    1.6347 H      89  UNL89       0.0521
    533 H           0.6622   24.8368    1.7174 H      89  UNL89       0.0521
    534 H           2.7190   23.0958    2.6233 H      89  UNL89       0.2090
    535 O           0.4333   23.9295    5.2358 O.3    90  UNL90      -0.3982
    536 C          -0.9825   23.9295    5.2358 C.3    90  UNL90       0.0330
    537 H          -1.3478   23.1605    5.9210 H      90  UNL90       0.0521
    538 H          -1.3477   23.7348    4.2245 H      90  UNL90       0.0521
    539 H          -1.3378   24.9081    5.5670 H      90  UNL90       0.0521
    540 H           0.7190   23.0491    4.9378 H      90  UNL90       0.2090
    541 O           0.4333   23.9295    8.1582 O.3    91  UNL91      -0.3982
    542 C          -0.9825   23.9295    8.1582 C.3    91  UNL91       0.0330
    543 H          -1.3478   23.1605    8.8434 H      91  UNL91       0.0521
    544 H          -1.3477   23.7348    7.1469 H      91  UNL91       0.0521
    545 H          -1.3378   24.9081    8.4894 H      91  UNL91       0.0521
    546 H           0.7190   23.0491    7.8602 H      91  UNL91       0.2090
    547 O           2.4333   23.7380   10.8870 O.3    92  UNL92      -0.3982
    548 C           1.0175   23.7380   10.8870 C.3    92  UNL92       0.0330
    549 H           0.6522   24.7472   11.0930 H      92  UNL92       0.0521
    550 H           0.6523   23.0443   11.6482 H      92  UNL92       0.0521
    551 H           0.6622   23.4177    9.9047 H      92  UNL92       0.0521
    552 H           2.7190   24.0261   11.7706 H      92  UNL92       0.2090
    553 O           2.4333   23.9295   14.0029 O.3    93  UNL93      -0.3982
    554 C           1.0175   23.9295   14.0029 C.3    93  UNL93       0.0330
    555 H           0.6522   23.1605   14.6881 H      93  UNL93       0.0521
    556 H           0.6523   23.7348   12.9916 H      93  UNL93       0.0521
    557 H           0.6622   24.9081   14.3341 H      93  UNL93       0.0521
    558 H           2.7190   23.0491   13.7049 H      93  UNL93       0.2090
    559 O           0.9544   23.2477   17.6078 O.3    94  UNL94      -0.3982
    560 C           1.6050   23.7961   16.4763 C.3    94  UNL94       0.0330
    561 H           2.0366   24.7656   16.7373 H      94  UNL94       0.0521
    562 H           0.8854   23.9129   15.6622 H      94  UNL94       0.0521
    563 H           2.4015   23.1181   16.1610 H      94  UNL94       0.0521
    564 H           0.2533   23.8708   17.8643 H      94  UNL94       0.2090
    565 O           0.4333   23.9295   19.8477 O.3    95  UNL95      -0.3982
    566 C          -0.9825   23.9295   19.8477 C.3    95  UNL95       0.0330
    567 H          -1.3478   23.1605   20.5329 H      95  UNL95       0.0521
    568 H          -1.3477   23.7348   18.8364 H      95  UNL95       0.0521
    569 H          -1.3378   24.9081   20.1789 H      95  UNL95       0.0521
    570 H           0.7190   23.0491   19.5497 H      95  UNL95       0.2090
    571 O           0.4333   23.9295   22.7701 O.3    96  UNL96      -0.3982
    572 C          -0.9825   23.9295   22.7701 C.3    96  UNL96       0.0330
    573 H          -1.3478   23.1605   23.4552 H      96  UNL96       0.0521
    574 H          -1.3477   23.7348   21.7588 H      96  UNL96       0.0521
    575 H          -1.3378   24.9081   23.1012 H      96  UNL96       0.0521
    576 H           0.7190   23.0491   22.4720 H      96  UNL96       0.2090
    577 O           0.4333   23.9295   25.6924 O.3    97  UNL97      -0.3982
    578 C          -0.9825   23.9295   25.6924 C.3    97  UNL97       0.0330
    579 H          -1.3478   23.1605   26.3776 H      97  UNL97       0.0521
    580 H          -1.3477   23.7348   24.6811 H      97  UNL97       0.0521
    581 H          -1.3378   24.9081   26.0236 H      97  UNL97       0.0521
    582 H           0.7190   23.0491   25.3944 H      97  UNL97       0.2090
    583 O           0.4333   23.9295   28.6148 O.3    98  UNL98      -0.3982
    584 C          -0.9825   23.9295   28.6148 C.3    98  UNL98       0.0330
    585 H          -1.3478   23.1605   29.3000 H      98  UNL98       0.0521
    586 H          -1.3477   23.7348   27.6035 H      98  UNL98       0.0521
    587 H          -1.3378   24.9081   28.9460 H      98  UNL98       0.0521
    588 H           0.7190   23.0491   28.3168 H      98  UNL98       0.2090
    589 O           0.4333   26.9737   -0.6090 O.3    99  UNL99      -0.3982
    590 C          -0.9825   26.9737   -0.6090 C.3    99  UNL99       0.0330
    591 H          -1.3478   26.2047    0.0762 H      99  UNL99       0.0521
    592 H          -1.3477   26.7790   -1.6203 H      99  UNL99       0.0521
    593 H          -1.3378   27.9523   -0.2778 H      99  UNL99       0.0521
    594 H           0.7190   26.0933   -0.9070 H      99  UNL99       0.2090
    595 O           2.4333   26.9737    2.3134 O.3   100  UNL100     -0.3982
    596 C           1.0175   26.9737    2.3134 C.3   100  UNL100      0.0330
    597 H           0.6522   26.2047    2.9986 H     100  UNL100      0.0521
    598 H           0.6523   26.7790    1.3021 H     100  UNL100      0.0521
    599 H           0.6622   27.9523    2.6446 H     100  UNL100      0.0521
    600 H           2.7190   26.0933    2.0154 H     100  UNL100      0.2090
    601 O           2.0197   26.7305    6.0433 O.3   101  UNL101     -0.3982
    602 C           1.2285   27.0435    4.9118 C.3   101  UNL101      0.0330
    603 H           0.1702   26.9642    5.1728 H     101  UNL101      0.0521
    604 H           1.4666   26.3545    4.0977 H     101  UNL101      0.0521
    605 H           1.4481   28.0662    4.5965 H     101  UNL101      0.0521
    606 H           1.8032   25.8179    6.2998 H     101  UNL101      0.2090
    607 O           2.4333   26.7040    8.1957 O.3   102  UNL102     -0.3982
    608 C           1.0175   26.7040    8.1957 C.3   102  UNL102      0.0330
    609 H           0.6522   26.6153    7.1696 H     102  UNL102      0.0521
    610 H           0.6523   27.6308    8.6449 H     102  UNL102      0.0521
    611 H           0.6622   25.8530    8.7815 H     102  UNL102      0.0521
    612 H           2.7190   27.4697    7.6687 H     102  UNL102      0.2090
    613 O           2.4333   26.9737   11.0806 O.3   103  UNL103     -0.3982
    614 C           1.0175   26.9737   11.0806 C.3   103  UNL103      0.0330
    615 H           0.6522   26.2047   11.7658 H     103  UNL103      0.0521
    616 H           0.6523   26.7790   10.0693 H     103  UNL103      0.0521
    617 H           0.6622   27.9523   11.4118 H     103  UNL103      0.0521
    618 H           2.7190   26.0933   10.7826 H     103  UNL103      0.2090
    619 O           2.4333   26.9737   14.0029 O.3   104  UNL104     -0.3982
    620 C           1.0175   26.9737   14.0029 C.3   104  UNL104      0.0330
    621 H           0.6522   26.2047   14.6881 H     104  UNL104      0.0521
    622 H           0.6523   26.7790   12.9916 H     104  UNL104      0.0521
    623 H           0.6622   27.9523   14.3341 H     104  UNL104      0.0521
    624 H           2.7190   26.0933   13.7049 H     104  UNL104      0.2090
    625 O           2.4333   26.9737   16.9253 O.3   105  UNL105     -0.3982
    626 C           1.0175   26.9737   16.9253 C.3   105  UNL105      0.0330
    627 H           0.6522   26.2047   17.6105 H     105  UNL105      0.0521
    628 H           0.6523   26.7790   15.9140 H     105  UNL105      0.0521
    629 H           0.6622   27.9523   17.2565 H     105  UNL105      0.0521
    630 H           2.7190   26.0933   16.6273 H     105  UNL105      0.2090
    631 O           0.4333   26.9737   19.8477 O.3   106  UNL106     -0.3982
    632 C          -0.9825   26.9737   19.8477 C.3   106  UNL106      0.0330
    633 H          -1.3478   26.2047   20.5329 H     106  UNL106      0.0521
    634 H          -1.3477   26.7790   18.8364 H     106  UNL106      0.0521
    635 H          -1.3378   27.9523   20.1789 H     106  UNL106      0.0521
    636 H           0.7190   26.0933   19.5497 H     106  UNL106      0.2090
    637 O           2.3083   27.0191   22.8591 O.3   107  UNL107     -0.3982
    638 C           0.8925   27.0191   22.8591 C.3   107  UNL107      0.0330
    639 H           0.5272   25.9923   22.7786 H     107  UNL107      0.0521
    640 H           0.5273   27.6141   22.0185 H     107  UNL107      0.0521
    641 H           0.5372   27.4576   23.7946 H     107  UNL107      0.0521
    642 H           2.5940   26.6246   22.0175 H     107  UNL107      0.2090
    643 O           1.8422   27.7891   25.4814 O.3   108  UNL108     -0.3982
    644 C           1.0509   26.6216   25.6048 C.3   108  UNL108      0.0330
    645 H           0.9392   26.3660   26.6615 H     108  UNL108      0.0521
    646 H           1.5287   25.7982   25.0683 H     108  UNL108      0.0521
    647 H           0.0660   26.8125   25.1723 H     108  UNL108      0.0521
    648 H           2.7093   27.5893   25.8734 H     108  UNL108      0.2090
    649 O           2.3083   27.0453   28.4437 O.3   109  UNL109     -0.3982
    650 C           0.8925   27.0453   28.4437 C.3   109  UNL109      0.0330
    651 H           0.5272   27.4609   29.3861 H     109  UNL109      0.0521
    652 H           0.5273   26.0231   28.3181 H     109  UNL109      0.0521
    653 H           0.5372   27.6613   27.6143 H     109  UNL109      0.0521
    654 H           2.5940   26.4910   29.1899 H     109  UNL109      0.2090
    655 O           0.4333   30.0180   -0.6090 O.3   110  UNL110     -0.3982
    656 C          -0.9825   30.0180   -0.6090 C.3   110  UNL110      0.0330
    657 H          -1.3478   29.2490    0.0762 H     110  UNL110      0.0521
    658 H          -1.3477   29.8233   -1.6203 H     110  UNL110      0.0521
    659 H          -1.3378   30.9966   -0.2778 H     110  UNL110      0.0521
    660 H           0.7190   29.1376   -0.9070 H     110  UNL110      0.2090
    661 O           0.4333   30.0180    2.3134 O.3   111  UNL111     -0.3982
    662 C          -0.9825   30.0180    2.3134 C.3   111  UNL111      0.0330
    663 H          -1.3478   29.2490    2.9986 H     111  UNL111      0.0521
    664 H          -1.3477   29.8233    1.3021 H     111  UNL111      0.0521
    665 H          -1.3378   30.9966    2.6446 H     111  UNL111      0.0521
    666 H           0.7190   29.1376    2.0154 H     111  UNL111      0.2090
    667 O           0.4333   29.9652    5.3087 O.3   112  UNL112     -0.3982
    668 C          -0.9825   29.9652    5.3087 C.3   112  UNL112      0.0330
    669 H          -1.3478   28.9436    5.4399 H     112  UNL112      0.0521
    670 H          -1.3477   30.3756    4.3642 H     112  UNL112      0.0521
    671 H          -1.3378   30.5858    6.1347 H     112  UNL112      0.0521
    672 H           0.7190   29.4069    4.5656 H     112  UNL112      0.2090
    673 O           2.4333   30.0088    8.0391 O.3   113  UNL113     -0.3982
    674 C           1.0175   30.0088    8.0391 C.3   113  UNL113      0.0330
    675 H           0.6522   29.9709    9.0683 H     113  UNL113      0.0521
    676 H           0.6523   29.1443    7.4794 H     113  UNL113      0.0521
    677 H           0.6622   30.9253    7.5622 H     113  UNL113      0.0521
    678 H           2.7190   29.1843    8.4681 H     113  UNL113      0.2090
    679 O           0.4333   30.0180   11.0806 O.3   114  UNL114     -0.3982
    680 C          -0.9825   30.0180   11.0806 C.3   114  UNL114      0.0330
    681 H          -1.3478   29.2490   11.7658 H     114  UNL114      0.0521
    682 H          -1.3477   29.8233   10.0693 H     114  UNL114      0.0521
    683 H          -1.3378   30.9966   11.4118 H     114  UNL114      0.0521
    684 H           0.7190   29.1376   10.7826 H     114  UNL114      0.2090
    685 O           0.4333   30.0180   14.0029 O.3   115  UNL115     -0.3982
    686 C          -0.9825   30.0180   14.0029 C.3   115  UNL115      0.0330
    687 H          -1.3478   29.2490   14.6881 H     115  UNL115      0.0521
    688 H          -1.3477   29.8233   12.9916 H     115  UNL115      0.0521
    689 H          -1.3378   30.9966   14.3341 H     115  UNL115      0.0521
    690 H           0.7190   29.1376   13.7049 H     115  UNL115      0.2090
    691 O           0.4333   30.0180   16.9253 O.3   116  UNL116     -0.3982
    692 C          -0.9825   30.0180   16.9253 C.3   116  UNL116      0.0330
    693 H          -1.3478   29.2490   17.6105 H     116  UNL116      0.0521
    694 H          -1.3477   29.8233   15.9140 H     116  UNL116      0.0521
    695 H          -1.3378   30.9966   17.2565 H     116  UNL116      0.0521
    696 H           0.7190   29.1376   16.6273 H     116  UNL116      0.2090
    697 O           0.4333   30.0180   19.8477 O.3   117  UNL117     -0.3982
    698 C          -0.9825   30.0180   19.8477 C.3   117  UNL117      0.0330
    699 H          -1.3478   29.2490   20.5329 H     117  UNL117      0.0521
    700 H          -1.3477   29.8233   18.8364 H     117  UNL117      0.0521
    701 H          -1.3378   30.9966   20.1789 H     117  UNL117      0.0521
    702 H           0.7190   29.1376   19.5497 H     117  UNL117      0.2090
    703 O           0.4333   30.0180   22.7701 O.3   118  UNL118     -0.3982
    704 C          -0.9825   30.0180   22.7701 C.3   118  UNL118      0.0330
    705 H          -1.3478   29.2490   23.4552 H     118  UNL118      0.0521
    706 H          -1.3477   29.8233   21.7588 H     118  UNL118      0.0521
    707 H          -1.3378   30.9966   23.1012 H     118  UNL118      0.0521
    708 H           0.7190   29.1376   22.4720 H     118  UNL118      0.2090
    709 O           0.4333   30.0180   25.6924 O.3   119  UNL119     -0.3982
    710 C          -0.9825   30.0180   25.6924 C.3   119  UNL119      0.0330
    711 H          -1.3478   29.2490   26.3776 H     119  UNL119      0.0521
    712 H          -1.3477   29.8233   24.6811 H     119  UNL119      0.0521
    713 H          -1.3378   30.9966   26.0236 H     119  UNL119      0.0521
    714 H           0.7190   29.1376   25.3944 H     119  UNL119      0.2090
    715 O           2.4333   29.8716   28.7183 O.3   120  UNL120     -0.3982
    716 C           1.0175   29.8716   28.7183 C.3   120  UNL120      0.0330
    717 H           0.6522   28.9832   28.1971 H     120  UNL120      0.0521
    718 H           0.6523   30.7741   28.2221 H     120  UNL120      0.0521
    719 H           0.6622   29.8573   29.7513 H     120  UNL120      0.0521
    720 H           2.7190   29.8845   27.7889 H     120  UNL120      0.2090
    721 O           5.3190    0.2366   -1.3537 O.3   121  UNL121     -0.3982
    722 C           4.5278   -0.6347   -0.5668 C.3   121  UNL121      0.0330
    723 H           4.4161   -0.2195    0.4379 H     121  UNL121      0.0521
    724 H           5.0055   -1.6161   -0.5160 H     121  UNL121      0.0521
    725 H           3.5428   -0.7349   -1.0289 H     121  UNL121      0.0521
    726 H           6.1862    0.3058   -0.9191 H     121  UNL121      0.2090
    727 O           5.5508    0.1961    1.9764 O.3   122  UNL122     -0.3982
    728 C           4.7596   -0.8689    2.4705 C.3   122  UNL122      0.0330
    729 H           4.4629   -1.5181    1.6429 H     122  UNL122      0.0521
    730 H           3.8736   -0.4658    2.9670 H     122  UNL122      0.0521
    731 H           5.3473   -1.4443    3.1895 H     122  UNL122      0.0521
    732 H           5.0031    0.6883    1.3413 H     122  UNL122      0.2090
    733 O           5.7851   -0.5041    5.3249 O.3   123  UNL123     -0.3982
    734 C           4.3693   -0.5041    5.3249 C.3   123  UNL123      0.0330
    735 H           4.0040   -1.5310    5.2443 H     123  UNL123      0.0521
    736 H           4.0041    0.0908    4.4842 H     123  UNL123      0.0521
    737 H           4.0140   -0.0657    6.2603 H     123  UNL123      0.0521
    738 H           6.0708   -0.8986    4.4833 H     123  UNL123      0.2090
    739 O           5.3190   -0.2515    9.0295 O.3   124  UNL124     -0.3982
    740 C           4.5278   -0.5646    7.8979 C.3   124  UNL124      0.0330
    741 H           4.4161   -1.6488    7.8189 H     124  UNL124      0.0521
    742 H           5.0055   -0.1702    6.9978 H     124  UNL124      0.0521
    743 H           3.5428   -0.1066    8.0154 H     124  UNL124      0.0521
    744 H           6.1862   -0.6710    8.8966 H     124  UNL124      0.2090
    745 O           5.9101   -0.4245   11.0806 O.3   125  UNL125     -0.3982
    746 C           4.4943   -0.4245   11.0806 C.3   125  UNL125      0.0330
    747 H           4.1290   -1.1935   11.7658 H     125  UNL125      0.0521
    748 H           4.1291   -0.6192   10.0693 H     125  UNL125      0.0521
    749 H           4.1390    0.5541   11.4118 H     125  UNL125      0.0521
    750 H           6.1958   -1.3049   10.7826 H     125  UNL125      0.2090
    751 O           3.9101   -0.4245   14.0029 O.3   126  UNL126     -0.3982
    752 C           2.4943   -0.4245   14.0029 C.3   126  UNL126      0.0330
    753 H           2.1290   -1.1935   14.6881 H     126  UNL126      0.0521
    754 H           2.1291   -0.6192   12.9916 H     126  UNL126      0.0521
    755 H           2.1390    0.5541   14.3341 H     126  UNL126      0.0521
    756 H           4.1958   -1.3049   13.7049 H     126  UNL126      0.2090
    757 O           5.5508   -0.1591   17.5838 O.3   127  UNL127     -0.3982
    758 C           4.7596   -0.8210   16.6142 C.3   127  UNL127      0.0330
    759 H           4.4629   -0.1110   15.8382 H     127  UNL127      0.0521
    760 H           3.8736   -1.2448   17.0932 H     127  UNL127      0.0521
    761 H           5.3473   -1.6246   16.1643 H     127  UNL127      0.0521
    762 H           5.0031    0.5479   17.9653 H     127  UNL127      0.2090
    763 O           5.9101   -0.5041   19.9367 O.3   128  UNL128     -0.3982
    764 C           4.4943   -0.5041   19.9367 C.3   128  UNL128      0.0330
    765 H           4.1290   -1.5310   19.8562 H     128  UNL128      0.0521
    766 H           4.1291    0.0908   19.0961 H     128  UNL128      0.0521
    767 H           4.1390   -0.0657   20.8722 H     128  UNL128      0.0521
    768 H           6.1958   -0.8986   19.0951 H     128  UNL128      0.2090
    769 O           3.8961   -0.1050   23.1586 O.3   129  UNL129     -0.3982
    770 C           5.0821   -0.4102   22.4481 C.3   129  UNL129      0.0330
    771 H           5.0577   -1.4549   22.1281 H     129  UNL129      0.0521
    772 H           5.9482   -0.2350   23.0909 H     129  UNL129      0.0521
    773 H           5.1464    0.2362   21.5697 H     129  UNL129      0.0521
    774 H           3.8668   -0.6939   23.9319 H     129  UNL129      0.2090
    775 O           5.5508    0.1961   25.3554 O.3   130  UNL130     -0.3982
    776 C           4.7596   -0.8689   25.8495 C.3   130  UNL130      0.0330
    777 H           4.4629   -1.5181   25.0219 H     130  UNL130      0.0521
    778 H           3.8736   -0.4658   26.3460 H     130  UNL130      0.0521
    779 H           5.3473   -1.4443   26.5685 H     130  UNL130      0.0521
    780 H           5.0031    0.6883   24.7203 H     130  UNL130      0.2090
    781 O           5.9101   -0.6745   28.4564 O.3   131  UNL131     -0.3982
    782 C           4.4943   -0.6745   28.4564 C.3   131  UNL131      0.0330
    783 H           4.1290    0.3232   28.2008 H     131  UNL131      0.0521
    784 H           4.1291   -0.9659   29.4442 H     131  UNL131      0.0521
    785 H           4.1390   -1.3918   27.7128 H     131  UNL131      0.0521
    786 H           6.1958   -0.0292   29.1253 H     131  UNL131      0.2090
    787 O           3.9101    2.6197   -0.6090 O.3   132  UNL132     -0.3982
    788 C           2.4943    2.6197   -0.6090 C.3   132  UNL132      0.0330
    789 H           2.1290    1.8507    0.0762 H     132  UNL132      0.0521
    790 H           2.1291    2.4250   -1.6203 H     132  UNL132      0.0521
    791 H           2.1390    3.5983   -0.2778 H     132  UNL132      0.0521
    792 H           4.1958    1.7393   -0.9070 H     132  UNL132      0.2090
    793 O           3.9101    2.6197    2.3134 O.3   133  UNL133     -0.3982
    794 C           2.4943    2.6197    2.3134 C.3   133  UNL133      0.0330
    795 H           2.1290    1.8507    2.9986 H     133  UNL133      0.0521
    796 H           2.1291    2.4250    1.3021 H     133  UNL133      0.0521
    797 H           2.1390    3.5983    2.6446 H     133  UNL133      0.0521
    798 H           4.1958    1.7393    2.0154 H     133  UNL133      0.2090
    799 O           3.9101    2.6197    5.2358 O.3   134  UNL134     -0.3982
    800 C           2.4943    2.6197    5.2358 C.3   134  UNL134      0.0330
    801 H           2.1290    1.8507    5.9210 H     134  UNL134      0.0521
    802 H           2.1291    2.4250    4.2245 H     134  UNL134      0.0521
    803 H           2.1390    3.5983    5.5670 H     134  UNL134      0.0521
    804 H           4.1958    1.7393    4.9378 H     134  UNL134      0.2090
    805 O           3.9101    2.6197    8.1582 O.3   135  UNL135     -0.3982
    806 C           2.4943    2.6197    8.1582 C.3   135  UNL135      0.0330
    807 H           2.1290    1.8507    8.8434 H     135  UNL135      0.0521
    808 H           2.1291    2.4250    7.1469 H     135  UNL135      0.0521
    809 H           2.1390    3.5983    8.4894 H     135  UNL135      0.0521
    810 H           4.1958    1.7393    7.8602 H     135  UNL135      0.2090
    811 O           5.9101    2.6197   11.0806 O.3   136  UNL136     -0.3982
    812 C           4.4943    2.6197   11.0806 C.3   136  UNL136      0.0330
    813 H           4.1290    1.8507   11.7658 H     136  UNL136      0.0521
    814 H           4.1291    2.4250   10.0693 H     136  UNL136      0.0521
    815 H           4.1390    3.5983   11.4118 H     136  UNL136      0.0521
    816 H           6.1958    1.7393   10.7826 H     136  UNL136      0.2090
    817 O           3.9101    2.6197   14.0029 O.3   137  UNL137     -0.3982
    818 C           2.4943    2.6197   14.0029 C.3   137  UNL137      0.0330
    819 H           2.1290    1.8507   14.6881 H     137  UNL137      0.0521
    820 H           2.1291    2.4250   12.9916 H     137  UNL137      0.0521
    821 H           2.1390    3.5983   14.3341 H     137  UNL137      0.0521
    822 H           4.1958    1.7393   13.7049 H     137  UNL137      0.2090
    823 O           3.9101    2.6197   16.9253 O.3   138  UNL138     -0.3982
    824 C           2.4943    2.6197   16.9253 C.3   138  UNL138      0.0330
    825 H           2.1290    1.8507   17.6105 H     138  UNL138      0.0521
    826 H           2.1291    2.4250   15.9140 H     138  UNL138      0.0521
    827 H           2.1390    3.5983   17.2565 H     138  UNL138      0.0521
    828 H           4.1958    1.7393   16.6273 H     138  UNL138      0.2090
    829 O           3.9101    2.6197   19.8477 O.3   139  UNL139     -0.3982
    830 C           2.4943    2.6197   19.8477 C.3   139  UNL139      0.0330
    831 H           2.1290    1.8507   20.5329 H     139  UNL139      0.0521
    832 H           2.1291    2.4250   18.8364 H     139  UNL139      0.0521
    833 H           2.1390    3.5983   20.1789 H     139  UNL139      0.0521
    834 H           4.1958    1.7393   19.5497 H     139  UNL139      0.2090
    835 O           3.9101    2.6197   22.7701 O.3   140  UNL140     -0.3982
    836 C           2.4943    2.6197   22.7701 C.3   140  UNL140      0.0330
    837 H           2.1290    1.8507   23.4552 H     140  UNL140      0.0521
    838 H           2.1291    2.4250   21.7588 H     140  UNL140      0.0521
    839 H           2.1390    3.5983   23.1012 H     140  UNL140      0.0521
    840 H           4.1958    1.7393   22.4720 H     140  UNL140      0.2090
    841 O           3.9101    2.6197   25.6924 O.3   141  UNL141     -0.3982
    842 C           2.4943    2.6197   25.6924 C.3   141  UNL141      0.0330
    843 H           2.1290    1.8507   26.3776 H     141  UNL141      0.0521
    844 H           2.1291    2.4250   24.6811 H     141  UNL141      0.0521
    845 H           2.1390    3.5983   26.0236 H     141  UNL141      0.0521
    846 H           4.1958    1.7393   25.3944 H     141  UNL141      0.2090
    847 O           3.9101    2.6197   28.6148 O.3   142  UNL142     -0.3982
    848 C           2.4943    2.6197   28.6148 C.3   142  UNL142      0.0330
    849 H           2.1290    1.8507   29.3000 H     142  UNL142      0.0521
    850 H           2.1291    2.4250   27.6035 H     142  UNL142      0.0521
    851 H           2.1390    3.5983   28.9460 H     142  UNL142      0.0521
    852 H           4.1958    1.7393   28.3168 H     142  UNL142      0.2090
    853 O           3.9101    5.6640   -0.6090 O.3   143  UNL143     -0.3982
    854 C           2.4943    5.6640   -0.6090 C.3   143  UNL143      0.0330
    855 H           2.1290    4.8950    0.0762 H     143  UNL143      0.0521
    856 H           2.1291    5.4693   -1.6203 H     143  UNL143      0.0521
    857 H           2.1390    6.6426   -0.2778 H     143  UNL143      0.0521
    858 H           4.1958    4.7836   -0.9070 H     143  UNL143      0.2090
    859 O           3.9101    5.6640    2.3134 O.3   144  UNL144     -0.3982
    860 C           2.4943    5.6640    2.3134 C.3   144  UNL144      0.0330
    861 H           2.1290    4.8950    2.9986 H     144  UNL144      0.0521
    862 H           2.1291    5.4693    1.3021 H     144  UNL144      0.0521
    863 H           2.1390    6.6426    2.6446 H     144  UNL144      0.0521
    864 H           4.1958    4.7836    2.0154 H     144  UNL144      0.2090
    865 O           3.9101    5.6640    5.2358 O.3   145  UNL145     -0.3982
    866 C           2.4943    5.6640    5.2358 C.3   145  UNL145      0.0330
    867 H           2.1290    4.8950    5.9210 H     145  UNL145      0.0521
    868 H           2.1291    5.4693    4.2245 H     145  UNL145      0.0521
    869 H           2.1390    6.6426    5.5670 H     145  UNL145      0.0521
    870 H           4.1958    4.7836    4.9378 H     145  UNL145      0.2090
    871 O           4.2703    5.3766    8.9045 O.3   146  UNL146     -0.3982
    872 C           5.1203    5.4171    7.7729 C.3   146  UNL146      0.0330
    873 H           5.5764    6.4071    7.6939 H     146  UNL146      0.0521
    874 H           4.5407    5.1983    6.8728 H     146  UNL146      0.0521
    875 H           5.9043    4.6654    7.8904 H     146  UNL146      0.0521
    876 H           3.5853    6.0538    8.7716 H     146  UNL146      0.2090
    877 O           3.9101    5.6640   11.0806 O.3   147  UNL147     -0.3982
    878 C           2.4943    5.6640   11.0806 C.3   147  UNL147      0.0330
    879 H           2.1290    4.8950   11.7658 H     147  UNL147      0.0521
    880 H           2.1291    5.4693   10.0693 H     147  UNL147      0.0521
    881 H           2.1390    6.6426   11.4118 H     147  UNL147      0.0521
    882 H           4.1958    4.7836   10.7826 H     147  UNL147      0.2090
    883 O           5.0237    4.5176   13.4109 O.3   148  UNL148     -0.3982
    884 C           5.0984    5.7727   14.0617 C.3   148  UNL148      0.0330
    885 H           4.1791    5.9466   14.6265 H     148  UNL148      0.0521
    886 H           5.2369    6.5617   13.3186 H     148  UNL148      0.0521
    887 H           5.9491    5.7674   14.7472 H     148  UNL148      0.0521
    888 H           4.2601    4.5524   12.8098 H     148  UNL148      0.2090
    889 O           4.7246    6.0512   17.7966 O.3   149  UNL149     -0.3982
    890 C           4.9037    5.2194   16.6651 C.3   149  UNL149      0.0330
    891 H           5.9550    4.9316   16.5860 H     149  UNL149      0.0521
    892 H           4.5930    5.7553   15.7649 H     149  UNL149      0.0521
    893 H           4.2906    4.3228   16.7825 H     149  UNL149      0.0521
    894 H           5.2804    6.8379   17.6637 H     149  UNL149      0.2090
    895 O           5.7851    5.5193   19.8852 O.3   150  UNL150     -0.3982
    896 C           4.3693    5.5193   19.8852 C.3   150  UNL150      0.0330
    897 H           4.0040    5.4305   18.8591 H     150  UNL150      0.0521
    898 H           4.0041    6.4460   20.3344 H     150  UNL150      0.0521
    899 H           4.0140    4.6683   20.4710 H     150  UNL150      0.0521
    900 H           6.0708    6.2849   19.3582 H     150  UNL150      0.2090
    901 O           4.5996    6.0512   23.6414 O.3   151  UNL151     -0.3982
    902 C           4.7787    5.2194   22.5098 C.3   151  UNL151      0.0330
    903 H           5.8300    4.9316   22.4308 H     151  UNL151      0.0521
    904 H           4.4680    5.7553   21.6097 H     151  UNL151      0.0521
    905 H           4.1656    4.3228   22.6273 H     151  UNL151      0.0521
    906 H           5.1554    6.8379   23.5085 H     151  UNL151      0.2090
    907 O           5.7851    5.4140   25.5340 O.3   152  UNL152     -0.3982
    908 C           4.3693    5.4140   25.5340 C.3   152  UNL152      0.0330
    909 H           4.0040    6.4117   25.2784 H     152  UNL152      0.0521
    910 H           4.0041    5.1226   26.5218 H     152  UNL152      0.0521
    911 H           4.0140    4.6967   24.7905 H     152  UNL152      0.0521
    912 H           6.0708    6.0593   26.2030 H     152  UNL152      0.2090
    913 O           4.8819    4.9413   29.4861 O.3   153  UNL153     -0.3982
    914 C           4.9812    5.7864   28.3546 C.3   153  UNL153      0.0330
    915 H           4.0793    6.3985   28.2755 H     153  UNL153      0.0521
    916 H           5.1021    5.1788   27.4544 H     153  UNL153      0.0521
    917 H           5.8512    6.4368   28.4720 H     153  UNL153      0.0521
    918 H           4.1016    4.3765   29.3532 H     153  UNL153      0.2090
    919 O           3.9101    8.7082   -0.6090 O.3   154  UNL154     -0.3982
    920 C           2.4943    8.7082   -0.6090 C.3   154  UNL154      0.0330
    921 H           2.1290    7.9392    0.0762 H     154  UNL154      0.0521
    922 H           2.1291    8.5135   -1.6203 H     154  UNL154      0.0521
    923 H           2.1390    9.6868   -0.2778 H     154  UNL154      0.0521
    924 H           4.1958    7.8278   -0.9070 H     154  UNL154      0.2090
    925 O           3.9101    8.7082    2.3134 O.3   155  UNL155     -0.3982
    926 C           2.4943    8.7082    2.3134 C.3   155  UNL155      0.0330
    927 H           2.1290    7.9392    2.9986 H     155  UNL155      0.0521
    928 H           2.1291    8.5135    1.3021 H     155  UNL155      0.0521
    929 H           2.1390    9.6868    2.6446 H     155  UNL155      0.0521
    930 H           4.1958    7.8278    2.0154 H     155  UNL155      0.2090
    931 O           3.9101    8.7082    5.2358 O.3   156  UNL156     -0.3982
    932 C           2.4943    8.7082    5.2358 C.3   156  UNL156      0.0330
    933 H           2.1290    7.9392    5.9210 H     156  UNL156      0.0521
    934 H           2.1291    8.5135    4.2245 H     156  UNL156      0.0521
    935 H           2.1390    9.6868    5.5670 H     156  UNL156      0.0521
    936 H           4.1958    7.8278    4.9378 H     156  UNL156      0.2090
    937 O           3.9101    8.7082    8.1582 O.3   157  UNL157     -0.3982
    938 C           2.4943    8.7082    8.1582 C.3   157  UNL157      0.0330
    939 H           2.1290    7.9392    8.8434 H     157  UNL157      0.0521
    940 H           2.1291    8.5135    7.1469 H     157  UNL157      0.0521
    941 H           2.1390    9.6868    8.4894 H     157  UNL157      0.0521
    942 H           4.1958    7.8278    7.8602 H     157  UNL157      0.2090
    943 O           3.9101    8.7082   11.0806 O.3   158  UNL158     -0.3982
    944 C           2.4943    8.7082   11.0806 C.3   158  UNL158      0.0330
    945 H           2.1290    7.9392   11.7658 H     158  UNL158      0.0521
    946 H           2.1291    8.5135   10.0693 H     158  UNL158      0.0521
    947 H           2.1390    9.6868   11.4118 H     158  UNL158      0.0521
    948 H           4.1958    7.8278   10.7826 H     158  UNL158      0.2090
    949 O           3.9101    8.7082   14.0029 O.3   159  UNL159     -0.3982
    950 C           2.4943    8.7082   14.0029 C.3   159  UNL159      0.0330
    951 H           2.1290    7.9392   14.6881 H     159  UNL159      0.0521
    952 H           2.1291    8.5135   12.9916 H     159  UNL159      0.0521
    953 H           2.1390    9.6868   14.3341 H     159  UNL159      0.0521
    954 H           4.1958    7.8278   13.7049 H     159  UNL159      0.2090
    955 O           3.9101    8.7082   16.9253 O.3   160  UNL160     -0.3982
    956 C           2.4943    8.7082   16.9253 C.3   160  UNL160      0.0330
    957 H           2.1290    7.9392   17.6105 H     160  UNL160      0.0521
    958 H           2.1291    8.5135   15.9140 H     160  UNL160      0.0521
    959 H           2.1390    9.6868   17.2565 H     160  UNL160      0.0521
    960 H           4.1958    7.8278   16.6273 H     160  UNL160      0.2090
    961 O           3.9101    8.7082   19.8477 O.3   161  UNL161     -0.3982
    962 C           2.4943    8.7082   19.8477 C.3   161  UNL161      0.0330
    963 H           2.1290    7.9392   20.5329 H     161  UNL161      0.0521
    964 H           2.1291    8.5135   18.8364 H     161  UNL161      0.0521
    965 H           2.1390    9.6868   20.1789 H     161  UNL161      0.0521
    966 H           4.1958    7.8278   19.5497 H     161  UNL161      0.2090
    967 O           3.9101    8.7082   22.7701 O.3   162  UNL162     -0.3982
    968 C           2.4943    8.7082   22.7701 C.3   162  UNL162      0.0330
    969 H           2.1290    7.9392   23.4552 H     162  UNL162      0.0521
    970 H           2.1291    8.5135   21.7588 H     162  UNL162      0.0521
    971 H           2.1390    9.6868   23.1012 H     162  UNL162      0.0521
    972 H           4.1958    7.8278   22.4720 H     162  UNL162      0.2090
    973 O           3.9101    8.7082   25.6924 O.3   163  UNL163     -0.3982
    974 C           2.4943    8.7082   25.6924 C.3   163  UNL163      0.0330
    975 H           2.1290    7.9392   26.3776 H     163  UNL163      0.0521
    976 H           2.1291    8.5135   24.6811 H     163  UNL163      0.0521
    977 H           2.1390    9.6868   26.0236 H     163  UNL163      0.0521
    978 H           4.1958    7.8278   25.3944 H     163  UNL163      0.2090
    979 O           3.9101    8.7082   28.6148 O.3   164  UNL164     -0.3982
    980 C           2.4943    8.7082   28.6148 C.3   164  UNL164      0.0330
    981 H           2.1290    7.9392   29.3000 H     164  UNL164      0.0521
    982 H           2.1291    8.5135   27.6035 H     164  UNL164      0.0521
    983 H           2.1390    9.6868   28.9460 H     164  UNL164      0.0521
    984 H           4.1958    7.8278   28.3168 H     164  UNL164      0.2090
    985 O           3.9101   11.7525   -0.6090 O.3   165  UNL165     -0.3982
    986 C           2.4943   11.7525   -0.6090 C.3   165  UNL165      0.0330
    987 H           2.1290   10.9835    0.0762 H     165  UNL165      0.0521
    988 H           2.1291   11.5578   -1.6203 H     165  UNL165      0.0521
    989 H           2.1390   12.7311   -0.2778 H     165  UNL165      0.0521
    990 H           4.1958   10.8721   -0.9070 H     165  UNL165      0.2090
    991 O           3.9101   11.7525    2.3134 O.3   166  UNL166     -0.3982
    992 C           2.4943   11.7525    2.3134 C.3   166  UNL166      0.0330
    993 H           2.1290   10.9835    2.9986 H     166  UNL166      0.0521
    994 H           2.1291   11.5578    1.3021 H     166  UNL166      0.0521
    995 H           2.1390   12.7311    2.6446 H     166  UNL166      0.0521
    996 H           4.1958   10.8721    2.0154 H     166  UNL166      0.2090
    997 O           3.9101   11.7525    5.2358 O.3   167  UNL167     -0.3982
    998 C           2.4943   11.7525    5.2358 C.3   167  UNL167      0.0330
    999 H           2.1290   10.9835    5.9210 H     167  UNL167      0.0521
   1000 H           2.1291   11.5578    4.2245 H     167  UNL167      0.0521
   1001 H           2.1390   12.7311    5.5670 H     167  UNL167      0.0521
   1002 H           4.1958   10.8721    4.9378 H     167  UNL167      0.2090
   1003 O           3.9101   11.7525    8.1582 O.3   168  UNL168     -0.3982
   1004 C           2.4943   11.7525    8.1582 C.3   168  UNL168      0.0330
   1005 H           2.1290   10.9835    8.8434 H     168  UNL168      0.0521
   1006 H           2.1291   11.5578    7.1469 H     168  UNL168      0.0521
   1007 H           2.1390   12.7311    8.4894 H     168  UNL168      0.0521
   1008 H           4.1958   10.8721    7.8602 H     168  UNL168      0.2090
   1009 O           3.9101   11.7525   11.0806 O.3   169  UNL169     -0.3982
   1010 C           2.4943   11.7525   11.0806 C.3   169  UNL169      0.0330
   1011 H           2.1290   10.9835   11.7658 H     169  UNL169      0.0521
   1012 H           2.1291   11.5578   10.0693 H     169  UNL169      0.0521
   1013 H           2.1390   12.7311   11.4118 H     169  UNL169      0.0521
   1014 H           4.1958   10.8721   10.7826 H     169  UNL169      0.2090
   1015 O           3.9101   11.7525   14.0029 O.3   170  UNL170     -0.3982
   1016 C           2.4943   11.7525   14.0029 C.3   170  UNL170      0.0330
   1017 H           2.1290   10.9835   14.6881 H     170  UNL170      0.0521
   1018 H           2.1291   11.5578   12.9916 H     170  UNL170      0.0521
   1019 H           2.1390   12.7311   14.3341 H     170  UNL170      0.0521
   1020 H           4.1958   10.8721   13.7049 H     170  UNL170      0.2090
   1021 O           3.9101   11.7525   16.9253 O.3   171  UNL171     -0.3982
   1022 C           2.4943   11.7525   16.9253 C.3   171  UNL171      0.0330
   1023 H           2.1290   10.9835   17.6105 H     171  UNL171      0.0521
   1024 H           2.1291   11.5578   15.9140 H     171  UNL171      0.0521
   1025 H           2.1390   12.7311   17.2565 H     171  UNL171      0.0521
   1026 H           4.1958   10.8721   16.6273 H     171  UNL171      0.2090
   1027 O           3.9101   11.7525   19.8477 O.3   172  UNL172     -0.3982
   1028 C           2.4943   11.7525   19.8477 C.3   172  UNL172      0.0330
   1029 H           2.1290   10.9835   20.5329 H     172  UNL172      0.0521
   1030 H           2.1291   11.5578   18.8364 H     172  UNL172      0.0521
   1031 H           2.1390   12.7311   20.1789 H     172  UNL172      0.0521
   1032 H           4.1958   10.8721   19.5497 H     172  UNL172      0.2090
   1033 O           3.9101   11.7525   22.7701 O.3   173  UNL173     -0.3982
   1034 C           2.4943   11.7525   22.7701 C.3   173  UNL173      0.0330
   1035 H           2.1290   10.9835   23.4552 H     173  UNL173      0.0521
   1036 H           2.1291   11.5578   21.7588 H     173  UNL173      0.0521
   1037 H           2.1390   12.7311   23.1012 H     173  UNL173      0.0521
   1038 H           4.1958   10.8721   22.4720 H     173  UNL173      0.2090
   1039 O           5.0393   12.2467   26.4999 O.3   174  UNL174     -0.3982
   1040 C           4.6009   11.5174   25.3684 C.3   174  UNL174      0.0330
   1041 H           4.5057   10.4605   25.6294 H     174  UNL174      0.0521
   1042 H           5.3195   11.6395   24.5544 H     174  UNL174      0.0521
   1043 H           3.6279   11.9016   25.0532 H     174  UNL174      0.0521
   1044 H           5.9041   11.8836   26.7564 H     174  UNL174      0.2090
   1045 O           5.9101   11.4828   28.6523 O.3   175  UNL175     -0.3982
   1046 C           4.4943   11.4828   28.6523 C.3   175  UNL175      0.0330
   1047 H           4.1290   11.3940   27.6262 H     175  UNL175      0.0521
   1048 H           4.1291   12.4095   29.1016 H     175  UNL175      0.0521
   1049 H           4.1390   10.6318   29.2381 H     175  UNL175      0.0521
   1050 H           6.1958   12.2484   28.1253 H     175  UNL175      0.2090
   1051 O           3.2203   13.8390    1.0127 O.3   176  UNL176     -0.3982
   1052 C           2.6519   14.8435    0.1926 C.3   176  UNL176      0.0330
   1053 H           1.8797   14.4027   -0.4427 H     176  UNL176      0.0521
   1054 H           3.4320   15.2960   -0.4244 H     176  UNL176      0.0521
   1055 H           2.2034   15.6100    0.8290 H     176  UNL176      0.0521
   1056 H           3.6102   13.1736    0.4205 H     176  UNL176      0.2090
   1057 O           3.9101   14.7967    3.2358 O.3   177  UNL177     -0.3982
   1058 C           2.4943   14.7967    3.2358 C.3   177  UNL177      0.0330
   1059 H           2.1290   14.0277    3.9210 H     177  UNL177      0.0521
   1060 H           2.1291   14.6020    2.2245 H     177  UNL177      0.0521
   1061 H           2.1390   15.7753    3.5670 H     177  UNL177      0.0521
   1062 H           4.1958   13.9163    2.9378 H     177  UNL177      0.2090
   1063 O           3.9101   14.7967    6.1582 O.3   178  UNL178     -0.3982
   1064 C           2.4943   14.7967    6.1582 C.3   178  UNL178      0.0330
   1065 H           2.1290   14.0277    6.8434 H     178  UNL178      0.0521
   1066 H           2.1291   14.6020    5.1469 H     178  UNL178      0.0521
   1067 H           2.1390   15.7753    6.4894 H     178  UNL178      0.0521
   1068 H           4.1958   13.9163    5.8602 H     178  UNL178      0.2090
   1069 O           3.9101   14.7967    9.0806 O.3   179  UNL179     -0.3982
   1070 C           2.4943   14.7967    9.0806 C.3   179  UNL179      0.0330
   1071 H           2.1290   14.0277    9.7658 H     179  UNL179      0.0521
   1072 H           2.1291   14.6020    8.0693 H     179  UNL179      0.0521
   1073 H           2.1390   15.7753    9.4118 H     179  UNL179      0.0521
   1074 H           4.1958   13.9163    8.7826 H     179  UNL179      0.2090
   1075 O           3.9101   14.7967   12.0029 O.3   180  UNL180     -0.3982
   1076 C           2.4943   14.7967   12.0029 C.3   180  UNL180      0.0330
   1077 H           2.1290   14.0277   12.6881 H     180  UNL180      0.0521
   1078 H           2.1291   14.6020   10.9916 H     180  UNL180      0.0521
   1079 H           2.1390   15.7753   12.3341 H     180  UNL180      0.0521
   1080 H           4.1958   13.9163   11.7049 H     180  UNL180      0.2090
   1081 O           3.9101   14.7967   14.9253 O.3   181  UNL181     -0.3982
   1082 C           2.4943   14.7967   14.9253 C.3   181  UNL181      0.0330
   1083 H           2.1290   14.0277   15.6105 H     181  UNL181      0.0521
   1084 H           2.1291   14.6020   13.9140 H     181  UNL181      0.0521
   1085 H           2.1390   15.7753   15.2565 H     181  UNL181      0.0521
   1086 H           4.1958   13.9163   14.6273 H     181  UNL181      0.2090
   1087 O           3.9101   14.7967   17.8477 O.3   182  UNL182     -0.3982
   1088 C           2.4943   14.7967   17.8477 C.3   182  UNL182      0.0330
   1089 H           2.1290   14.0277   18.5329 H     182  UNL182      0.0521
   1090 H           2.1291   14.6020   16.8364 H     182  UNL182      0.0521
   1091 H           2.1390   15.7753   18.1789 H     182  UNL182      0.0521
   1092 H           4.1958   13.9163   17.5497 H     182  UNL182      0.2090
   1093 O           3.2203   13.8390   21.4693 O.3   183  UNL183     -0.3982
   1094 C           2.6519   14.8435   20.6493 C.3   183  UNL183      0.0330
   1095 H           1.8797   14.4027   20.0139 H     183  UNL183      0.0521
   1096 H           3.4320   15.2960   20.0322 H     183  UNL183      0.0521
   1097 H           2.2034   15.6100   21.2856 H     183  UNL183      0.0521
   1098 H           3.6102   13.1736   20.8771 H     183  UNL183      0.2090
   1099 O           3.9101   14.7967   23.6924 O.3   184  UNL184     -0.3982
   1100 C           2.4943   14.7967   23.6924 C.3   184  UNL184      0.0330
   1101 H           2.1290   14.0277   24.3776 H     184  UNL184      0.0521
   1102 H           2.1291   14.6020   22.6811 H     184  UNL184      0.0521
   1103 H           2.1390   15.7753   24.0236 H     184  UNL184      0.0521
   1104 H           4.1958   13.9163   23.3944 H     184  UNL184      0.2090
   1105 O           3.9101   14.7967   28.6148 O.3   185  UNL185     -0.3982
   1106 C           2.4943   14.7967   28.6148 C.3   185  UNL185      0.0330
   1107 H           2.1290   14.0277   29.3000 H     185  UNL185      0.0521
   1108 H           2.1291   14.6020   27.6035 H     185  UNL185      0.0521
   1109 H           2.1390   15.7753   28.9460 H     185  UNL185      0.0521
   1110 H           4.1958   13.9163   28.3168 H     185  UNL185      0.2090
   1111 O           3.9101   17.6495   -0.8026 O.3   186  UNL186     -0.3982
   1112 C           2.4943   17.6495   -0.8026 C.3   186  UNL186      0.0330
   1113 H           2.1290   18.6587   -0.5965 H     186  UNL186      0.0521
   1114 H           2.1291   16.9558   -0.0413 H     186  UNL186      0.0521
   1115 H           2.1390   17.3292   -1.7848 H     186  UNL186      0.0521
   1116 H           4.1958   17.9376    0.0811 H     186  UNL186      0.2090
   1117 O           3.9101   17.8410    2.3134 O.3   187  UNL187     -0.3982
   1118 C           2.4943   17.8410    2.3134 C.3   187  UNL187      0.0330
   1119 H           2.1290   17.0720    2.9986 H     187  UNL187      0.0521
   1120 H           2.1291   17.6463    1.3021 H     187  UNL187      0.0521
   1121 H           2.1390   18.8196    2.6446 H     187  UNL187      0.0521
   1122 H           4.1958   16.9606    2.0154 H     187  UNL187      0.2090
   1123 O           3.9101   17.8410    5.2358 O.3   188  UNL188     -0.3982
   1124 C           2.4943   17.8410    5.2358 C.3   188  UNL188      0.0330
   1125 H           2.1290   17.0720    5.9210 H     188  UNL188      0.0521
   1126 H           2.1291   17.6463    4.2245 H     188  UNL188      0.0521
   1127 H           2.1390   18.8196    5.5670 H     188  UNL188      0.0521
   1128 H           4.1958   16.9606    4.9378 H     188  UNL188      0.2090
   1129 O           3.9101   17.8410    8.1582 O.3   189  UNL189     -0.3982
   1130 C           2.4943   17.8410    8.1582 C.3   189  UNL189      0.0330
   1131 H           2.1290   17.0720    8.8434 H     189  UNL189      0.0521
   1132 H           2.1291   17.6463    7.1469 H     189  UNL189      0.0521
   1133 H           2.1390   18.8196    8.4894 H     189  UNL189      0.0521
   1134 H           4.1958   16.9606    7.8602 H     189  UNL189      0.2090
   1135 O           5.9101   17.5713   11.1181 O.3   190  UNL190     -0.3982
   1136 C           4.4943   17.5713   11.1181 C.3   190  UNL190      0.0330
   1137 H           4.1290   17.4825   10.0919 H     190  UNL190      0.0521
   1138 H           4.1291   18.4980   11.5673 H     190  UNL190      0.0521
   1139 H           4.1390   16.7203   11.7039 H     190  UNL190      0.0521
   1140 H           6.1958   18.3369   10.5911 H     190  UNL190      0.2090
   1141 O           5.7851   17.7160   13.8445 O.3   191  UNL191     -0.3982
   1142 C           4.3693   17.7160   13.8445 C.3   191  UNL191      0.0330
   1143 H           4.0040   18.7137   13.5889 H     191  UNL191      0.0521
   1144 H           4.0041   17.4246   14.8323 H     191  UNL191      0.0521
   1145 H           4.0140   16.9987   13.1010 H     191  UNL191      0.0521
   1146 H           6.0708   18.3613   14.5135 H     191  UNL191      0.2090
   1147 O           5.9101   17.7614   17.0144 O.3   192  UNL192     -0.3982
   1148 C           4.4943   17.7614   17.0144 C.3   192  UNL192      0.0330
   1149 H           4.1290   16.7345   16.9338 H     192  UNL192      0.0521
   1150 H           4.1291   18.3563   16.1738 H     192  UNL192      0.0521
   1151 H           4.1390   18.1998   17.9498 H     192  UNL192      0.0521
   1152 H           6.1958   17.3669   16.1728 H     192  UNL192      0.2090
   1153 O           3.9101   17.6495   19.6541 O.3   193  UNL193     -0.3982
   1154 C           2.4943   17.6495   19.6541 C.3   193  UNL193      0.0330
   1155 H           2.1290   18.6587   19.8601 H     193  UNL193      0.0521
   1156 H           2.1291   16.9558   20.4153 H     193  UNL193      0.0521
   1157 H           2.1390   17.3292   18.6719 H     193  UNL193      0.0521
   1158 H           4.1958   17.9376   20.5378 H     193  UNL193      0.2090
   1159 O           3.9101   17.8410   22.7701 O.3   194  UNL194     -0.3982
   1160 C           2.4943   17.8410   22.7701 C.3   194  UNL194      0.0330
   1161 H           2.1290   17.0720   23.4552 H     194  UNL194      0.0521
   1162 H           2.1291   17.6463   21.7588 H     194  UNL194      0.0521
   1163 H           2.1390   18.8196   23.1012 H     194  UNL194      0.0521
   1164 H           4.1958   16.9606   22.4720 H     194  UNL194      0.2090
   1165 O           3.9101   17.8410   25.6924 O.3   195  UNL195     -0.3982
   1166 C           2.4943   17.8410   25.6924 C.3   195  UNL195      0.0330
   1167 H           2.1290   17.0720   26.3776 H     195  UNL195      0.0521
   1168 H           2.1291   17.6463   24.6811 H     195  UNL195      0.0521
   1169 H           2.1390   18.8196   26.0236 H     195  UNL195      0.0521
   1170 H           4.1958   16.9606   25.3944 H     195  UNL195      0.2090
   1171 O           3.9101   17.8410   28.6148 O.3   196  UNL196     -0.3982
   1172 C           2.4943   17.8410   28.6148 C.3   196  UNL196      0.0330
   1173 H           2.1290   17.0720   29.3000 H     196  UNL196      0.0521
   1174 H           2.1291   17.6463   27.6035 H     196  UNL196      0.0521
   1175 H           2.1390   18.8196   28.9460 H     196  UNL196      0.0521
   1176 H           4.1958   16.9606   28.3168 H     196  UNL196      0.2090
   1177 O           3.9101   20.8852   -0.6090 O.3   197  UNL197     -0.3982
   1178 C           2.4943   20.8852   -0.6090 C.3   197  UNL197      0.0330
   1179 H           2.1290   20.1162    0.0762 H     197  UNL197      0.0521
   1180 H           2.1291   20.6905   -1.6203 H     197  UNL197      0.0521
   1181 H           2.1390   21.8638   -0.2778 H     197  UNL197      0.0521
   1182 H           4.1958   20.0048   -0.9070 H     197  UNL197      0.2090
   1183 O           5.9101   20.6155    2.3510 O.3   198  UNL198     -0.3982
   1184 C           4.4943   20.6155    2.3510 C.3   198  UNL198      0.0330
   1185 H           4.1290   20.5268    1.3248 H     198  UNL198      0.0521
   1186 H           4.1291   21.5422    2.8002 H     198  UNL198      0.0521
   1187 H           4.1390   19.7645    2.9368 H     198  UNL198      0.0521
   1188 H           6.1958   21.3812    1.8240 H     198  UNL198      0.2090
   1189 O           5.9101   20.6155    5.2733 O.3   199  UNL199     -0.3982
   1190 C           4.4943   20.6155    5.2733 C.3   199  UNL199      0.0330
   1191 H           4.1290   20.5268    4.2472 H     199  UNL199      0.0521
   1192 H           4.1291   21.5422    5.7226 H     199  UNL199      0.0521
   1193 H           4.1390   19.7645    5.8591 H     199  UNL199      0.0521
   1194 H           6.1958   21.3812    4.7463 H     199  UNL199      0.2090
   1195 O           5.7851   20.9306    8.2472 O.3   200  UNL200     -0.3982
   1196 C           4.3693   20.9306    8.2472 C.3   200  UNL200      0.0330
   1197 H           4.0040   19.9038    8.1667 H     200  UNL200      0.0521
   1198 H           4.0041   21.5256    7.4066 H     200  UNL200      0.0521
   1199 H           4.0140   21.3691    9.1827 H     200  UNL200      0.0521
   1200 H           6.0708   20.5361    7.4056 H     200  UNL200      0.2090
   1201 O           5.9101   20.6937   10.8870 O.3   201  UNL201     -0.3982
   1202 C           4.4943   20.6937   10.8870 C.3   201  UNL201      0.0330
   1203 H           4.1290   21.7029   11.0930 H     201  UNL201      0.0521
   1204 H           4.1291   20.0001   11.6482 H     201  UNL201      0.0521
   1205 H           4.1390   20.3734    9.9047 H     201  UNL201      0.0521
   1206 H           6.1958   20.9819   11.7706 H     201  UNL201      0.2090
   1207 O           5.9101   20.8852   14.0029 O.3   202  UNL202     -0.3982
   1208 C           4.4943   20.8852   14.0029 C.3   202  UNL202      0.0330
   1209 H           4.1290   20.1162   14.6881 H     202  UNL202      0.0521
   1210 H           4.1291   20.6905   12.9916 H     202  UNL202      0.0521
   1211 H           4.1390   21.8638   14.3341 H     202  UNL202      0.0521
   1212 H           6.1958   20.0048   13.7049 H     202  UNL202      0.2090
   1213 O           3.9101   20.8852   16.9253 O.3   203  UNL203     -0.3982
   1214 C           2.4943   20.8852   16.9253 C.3   203  UNL203      0.0330
   1215 H           2.1290   20.1162   17.6105 H     203  UNL203      0.0521
   1216 H           2.1291   20.6905   15.9140 H     203  UNL203      0.0521
   1217 H           2.1390   21.8638   17.2565 H     203  UNL203      0.0521
   1218 H           4.1958   20.0048   16.6273 H     203  UNL203      0.2090
   1219 O           3.9101   20.8852   19.8477 O.3   204  UNL204     -0.3982
   1220 C           2.4943   20.8852   19.8477 C.3   204  UNL204      0.0330
   1221 H           2.1290   20.1162   20.5329 H     204  UNL204      0.0521
   1222 H           2.1291   20.6905   18.8364 H     204  UNL204      0.0521
   1223 H           2.1390   21.8638   20.1789 H     204  UNL204      0.0521
   1224 H           4.1958   20.0048   19.5497 H     204  UNL204      0.2090
   1225 O           5.9101   20.6155   22.8076 O.3   205  UNL205     -0.3982
   1226 C           4.4943   20.6155   22.8076 C.3   205  UNL205      0.0330
   1227 H           4.1290   20.5268   21.7814 H     205  UNL205      0.0521
   1228 H           4.1291   21.5422   23.2568 H     205  UNL205      0.0521
   1229 H           4.1390   19.7645   23.3934 H     205  UNL205      0.0521
   1230 H           6.1958   21.3812   22.2806 H     205  UNL205      0.2090
   1231 O           5.9101   20.6155   25.7300 O.3   206  UNL206     -0.3982
   1232 C           4.4943   20.6155   25.7300 C.3   206  UNL206      0.0330
   1233 H           4.1290   20.5268   24.7038 H     206  UNL206      0.0521
   1234 H           4.1291   21.5422   26.1792 H     206  UNL206      0.0521
   1235 H           4.1390   19.7645   26.3158 H     206  UNL206      0.0521
   1236 H           6.1958   21.3812   25.2030 H     206  UNL206      0.2090
   1237 O           5.7851   20.8056   28.7039 O.3   207  UNL207     -0.3982
   1238 C           4.3693   20.8056   28.7039 C.3   207  UNL207      0.0330
   1239 H           4.0040   19.7788   28.6233 H     207  UNL207      0.0521
   1240 H           4.0041   21.4006   27.8633 H     207  UNL207      0.0521
   1241 H           4.0140   21.2441   29.6393 H     207  UNL207      0.0521
   1242 H           6.0708   20.4111   27.8623 H     207  UNL207      0.2090
   1243 O           5.7851   23.8499   -0.6449 O.3   208  UNL208     -0.3982
   1244 C           4.3693   23.8499   -0.6449 C.3   208  UNL208      0.0330
   1245 H           4.0040   22.8230   -0.7254 H     208  UNL208      0.0521
   1246 H           4.0041   24.4448   -1.4855 H     208  UNL208      0.0521
   1247 H           4.0140   24.2883    0.2906 H     208  UNL208      0.0521
   1248 H           6.0708   23.4554   -1.4865 H     208  UNL208      0.2090
   1249 O           5.9101   23.9203    2.1943 O.3   209  UNL209     -0.3982
   1250 C           4.4943   23.9203    2.1943 C.3   209  UNL209      0.0330
   1251 H           4.1290   23.8824    3.2236 H     209  UNL209      0.0521
   1252 H           4.1291   23.0558    1.6347 H     209  UNL209      0.0521
   1253 H           4.1390   24.8368    1.7174 H     209  UNL209      0.0521
   1254 H           6.1958   23.0958    2.6233 H     209  UNL209      0.2090
   1255 O           3.9101   23.9295    5.2358 O.3   210  UNL210     -0.3982
   1256 C           2.4943   23.9295    5.2358 C.3   210  UNL210      0.0330
   1257 H           2.1290   23.1605    5.9210 H     210  UNL210      0.0521
   1258 H           2.1291   23.7348    4.2245 H     210  UNL210      0.0521
   1259 H           2.1390   24.9081    5.5670 H     210  UNL210      0.0521
   1260 H           4.1958   23.0491    4.9378 H     210  UNL210      0.2090
   1261 O           3.9101   23.9295    8.1582 O.3   211  UNL211     -0.3982
   1262 C           2.4943   23.9295    8.1582 C.3   211  UNL211      0.0330
   1263 H           2.1290   23.1605    8.8434 H     211  UNL211      0.0521
   1264 H           2.1291   23.7348    7.1469 H     211  UNL211      0.0521
   1265 H           2.1390   24.9081    8.4894 H     211  UNL211      0.0521
   1266 H           4.1958   23.0491    7.8602 H     211  UNL211      0.2090
   1267 O           5.9101   23.7380   10.8870 O.3   212  UNL212     -0.3982
   1268 C           4.4943   23.7380   10.8870 C.3   212  UNL212      0.0330
   1269 H           4.1290   24.7472   11.0930 H     212  UNL212      0.0521
   1270 H           4.1291   23.0443   11.6482 H     212  UNL212      0.0521
   1271 H           4.1390   23.4177    9.9047 H     212  UNL212      0.0521
   1272 H           6.1958   24.0261   11.7706 H     212  UNL212      0.2090
   1273 O           5.9101   23.9295   14.0029 O.3   213  UNL213     -0.3982
   1274 C           4.4943   23.9295   14.0029 C.3   213  UNL213      0.0330
   1275 H           4.1290   23.1605   14.6881 H     213  UNL213      0.0521
   1276 H           4.1291   23.7348   12.9916 H     213  UNL213      0.0521
   1277 H           4.1390   24.9081   14.3341 H     213  UNL213      0.0521
   1278 H           6.1958   23.0491   13.7049 H     213  UNL213      0.2090
   1279 O           4.4312   23.2477   17.6078 O.3   214  UNL214     -0.3982
   1280 C           5.0818   23.7961   16.4763 C.3   214  UNL214      0.0330
   1281 H           5.5134   24.7656   16.7373 H     214  UNL214      0.0521
   1282 H           4.3623   23.9129   15.6622 H     214  UNL214      0.0521
   1283 H           5.8784   23.1181   16.1610 H     214  UNL214      0.0521
   1284 H           3.7302   23.8708   17.8643 H     214  UNL214      0.2090
   1285 O           3.9101   23.9295   19.8477 O.3   215  UNL215     -0.3982
   1286 C           2.4943   23.9295   19.8477 C.3   215  UNL215      0.0330
   1287 H           2.1290   23.1605   20.5329 H     215  UNL215      0.0521
   1288 H           2.1291   23.7348   18.8364 H     215  UNL215      0.0521
   1289 H           2.1390   24.9081   20.1789 H     215  UNL215      0.0521
   1290 H           4.1958   23.0491   19.5497 H     215  UNL215      0.2090
   1291 O           3.9101   23.9295   22.7701 O.3   216  UNL216     -0.3982
   1292 C           2.4943   23.9295   22.7701 C.3   216  UNL216      0.0330
   1293 H           2.1290   23.1605   23.4552 H     216  UNL216      0.0521
   1294 H           2.1291   23.7348   21.7588 H     216  UNL216      0.0521
   1295 H           2.1390   24.9081   23.1012 H     216  UNL216      0.0521
   1296 H           4.1958   23.0491   22.4720 H     216  UNL216      0.2090
   1297 O           3.9101   23.9295   25.6924 O.3   217  UNL217     -0.3982
   1298 C           2.4943   23.9295   25.6924 C.3   217  UNL217      0.0330
   1299 H           2.1290   23.1605   26.3776 H     217  UNL217      0.0521
   1300 H           2.1291   23.7348   24.6811 H     217  UNL217      0.0521
   1301 H           2.1390   24.9081   26.0236 H     217  UNL217      0.0521
   1302 H           4.1958   23.0491   25.3944 H     217  UNL217      0.2090
   1303 O           3.9101   23.9295   28.6148 O.3   218  UNL218     -0.3982
   1304 C           2.4943   23.9295   28.6148 C.3   218  UNL218      0.0330
   1305 H           2.1290   23.1605   29.3000 H     218  UNL218      0.0521
   1306 H           2.1291   23.7348   27.6035 H     218  UNL218      0.0521
   1307 H           2.1390   24.9081   28.9460 H     218  UNL218      0.0521
   1308 H           4.1958   23.0491   28.3168 H     218  UNL218      0.2090
   1309 O           3.9101   26.9737   -0.6090 O.3   219  UNL219     -0.3982
   1310 C           2.4943   26.9737   -0.6090 C.3   219  UNL219      0.0330
   1311 H           2.1290   26.2047    0.0762 H     219  UNL219      0.0521
   1312 H           2.1291   26.7790   -1.6203 H     219  UNL219      0.0521
   1313 H           2.1390   27.9523   -0.2778 H     219  UNL219      0.0521
   1314 H           4.1958   26.0933   -0.9070 H     219  UNL219      0.2090
   1315 O           5.9101   26.9737    2.3134 O.3   220  UNL220     -0.3982
   1316 C           4.4943   26.9737    2.3134 C.3   220  UNL220      0.0330
   1317 H           4.1290   26.2047    2.9986 H     220  UNL220      0.0521
   1318 H           4.1291   26.7790    1.3021 H     220  UNL220      0.0521
   1319 H           4.1390   27.9523    2.6446 H     220  UNL220      0.0521
   1320 H           6.1958   26.0933    2.0154 H     220  UNL220      0.2090
   1321 O           5.0393   27.4680    6.0433 O.3   221  UNL221     -0.3982
   1322 C           4.6009   26.7387    4.9118 C.3   221  UNL221      0.0330
   1323 H           4.5057   25.6817    5.1728 H     221  UNL221      0.0521
   1324 H           5.3195   26.8607    4.0977 H     221  UNL221      0.0521
   1325 H           3.6279   27.1229    4.5965 H     221  UNL221      0.0521
   1326 H           5.9041   27.1049    6.2998 H     221  UNL221      0.2090
   1327 O           5.9101   26.7040    8.1957 O.3   222  UNL222     -0.3982
   1328 C           4.4943   26.7040    8.1957 C.3   222  UNL222      0.0330
   1329 H           4.1290   26.6153    7.1696 H     222  UNL222      0.0521
   1330 H           4.1291   27.6308    8.6449 H     222  UNL222      0.0521
   1331 H           4.1390   25.8530    8.7815 H     222  UNL222      0.0521
   1332 H           6.1958   27.4697    7.6687 H     222  UNL222      0.2090
   1333 O           5.9101   26.9737   11.0806 O.3   223  UNL223     -0.3982
   1334 C           4.4943   26.9737   11.0806 C.3   223  UNL223      0.0330
   1335 H           4.1290   26.2047   11.7658 H     223  UNL223      0.0521
   1336 H           4.1291   26.7790   10.0693 H     223  UNL223      0.0521
   1337 H           4.1390   27.9523   11.4118 H     223  UNL223      0.0521
   1338 H           6.1958   26.0933   10.7826 H     223  UNL223      0.2090
   1339 O           5.9101   26.9737   14.0029 O.3   224  UNL224     -0.3982
   1340 C           4.4943   26.9737   14.0029 C.3   224  UNL224      0.0330
   1341 H           4.1290   26.2047   14.6881 H     224  UNL224      0.0521
   1342 H           4.1291   26.7790   12.9916 H     224  UNL224      0.0521
   1343 H           4.1390   27.9523   14.3341 H     224  UNL224      0.0521
   1344 H           6.1958   26.0933   13.7049 H     224  UNL224      0.2090
   1345 O           5.9101   26.9737   16.9253 O.3   225  UNL225     -0.3982
   1346 C           4.4943   26.9737   16.9253 C.3   225  UNL225      0.0330
   1347 H           4.1290   26.2047   17.6105 H     225  UNL225      0.0521
   1348 H           4.1291   26.7790   15.9140 H     225  UNL225      0.0521
   1349 H           4.1390   27.9523   17.2565 H     225  UNL225      0.0521
   1350 H           6.1958   26.0933   16.6273 H     225  UNL225      0.2090
   1351 O           3.9101   26.9737   19.8477 O.3   226  UNL226     -0.3982
   1352 C           2.4943   26.9737   19.8477 C.3   226  UNL226      0.0330
   1353 H           2.1290   26.2047   20.5329 H     226  UNL226      0.0521
   1354 H           2.1291   26.7790   18.8364 H     226  UNL226      0.0521
   1355 H           2.1390   27.9523   20.1789 H     226  UNL226      0.0521
   1356 H           4.1958   26.0933   19.5497 H     226  UNL226      0.2090
   1357 O           4.5996   27.3610   23.6413 O.3   227  UNL227     -0.3982
   1358 C           4.7787   26.5291   22.5098 C.3   227  UNL227      0.0330
   1359 H           5.8300   26.2414   22.4308 H     227  UNL227      0.0521
   1360 H           4.4680   27.0651   21.6097 H     227  UNL227      0.0521
   1361 H           4.1656   25.6325   22.6273 H     227  UNL227      0.0521
   1362 H           5.1554   28.1477   23.5085 H     227  UNL227      0.2090
   1363 O           5.7851   26.7237   25.5340 O.3   228  UNL228     -0.3982
   1364 C           4.3693   26.7237   25.5340 C.3   228  UNL228      0.0330
   1365 H           4.0040   27.7215   25.2784 H     228  UNL228      0.0521
   1366 H           4.0041   26.4324   26.5218 H     228  UNL228      0.0521
   1367 H           4.0140   26.0064   24.7905 H     228  UNL228      0.0521
   1368 H           6.0708   27.3690   26.2030 H     228  UNL228      0.2090
   1369 O           4.8819   26.2510   29.4861 O.3   229  UNL229     -0.3982
   1370 C           4.9812   27.0962   28.3546 C.3   229  UNL229      0.0330
   1371 H           4.0793   27.7083   28.2755 H     229  UNL229      0.0521
   1372 H           5.1021   26.4886   27.4544 H     229  UNL229      0.0521
   1373 H           5.8512   27.7465   28.4720 H     229  UNL229      0.0521
   1374 H           4.1016   25.6862   29.3532 H     229  UNL229      0.2090
   1375 O           3.9101   30.0180   -0.6090 O.3   230  UNL230     -0.3982
   1376 C           2.4943   30.0180   -0.6090 C.3   230  UNL230      0.0330
   1377 H           2.1290   29.2490    0.0762 H     230  UNL230      0.0521
   1378 H           2.1291   29.8233   -1.6203 H     230  UNL230      0.0521
   1379 H           2.1390   30.9966   -0.2778 H     230  UNL230      0.0521
   1380 H           4.1958   29.1376   -0.9070 H     230  UNL230      0.2090
   1381 O           3.9101   30.0180    2.3134 O.3   231  UNL231     -0.3982
   1382 C           2.4943   30.0180    2.3134 C.3   231  UNL231      0.0330
   1383 H           2.1290   29.2490    2.9986 H     231  UNL231      0.0521
   1384 H           2.1291   29.8233    1.3021 H     231  UNL231      0.0521
   1385 H           2.1390   30.9966    2.6446 H     231  UNL231      0.0521
   1386 H           4.1958   29.1376    2.0154 H     231  UNL231      0.2090
   1387 O           3.9101   29.7686    5.2972 O.3   232  UNL232     -0.3982
   1388 C           2.4943   29.7686    5.2972 C.3   232  UNL232      0.0330
   1389 H           2.1290   29.4718    4.3109 H     232  UNL232      0.0521
   1390 H           2.1291   30.7676    5.5473 H     232  UNL232      0.0521
   1391 H           2.1390   29.0554    6.0446 H     232  UNL232      0.0521
   1392 H           4.1958   30.4102    4.6247 H     232  UNL232      0.2090
   1393 O           5.9101   30.0088    8.0391 O.3   233  UNL233     -0.3982
   1394 C           4.4943   30.0088    8.0391 C.3   233  UNL233      0.0330
   1395 H           4.1290   29.9709    9.0683 H     233  UNL233      0.0521
   1396 H           4.1291   29.1443    7.4794 H     233  UNL233      0.0521
   1397 H           4.1390   30.9253    7.5622 H     233  UNL233      0.0521
   1398 H           6.1958   29.1843    8.4681 H     233  UNL233      0.2090
   1399 O           3.9101   30.0180   11.0806 O.3   234  UNL234     -0.3982
   1400 C           2.4943   30.0180   11.0806 C.3   234  UNL234      0.0330
   1401 H           2.1290   29.2490   11.7658 H     234  UNL234      0.0521
   1402 H           2.1291   29.8233   10.0693 H     234  UNL234      0.0521
   1403 H           2.1390   30.9966   11.4118 H     234  UNL234      0.0521
   1404 H           4.1958   29.1376   10.7826 H     234  UNL234      0.2090
   1405 O           3.9101   30.0180   14.0029 O.3   235  UNL235     -0.3982
   1406 C           2.4943   30.0180   14.0029 C.3   235  UNL235      0.0330
   1407 H           2.1290   29.2490   14.6881 H     235  UNL235      0.0521
   1408 H           2.1291   29.8233   12.9916 H     235  UNL235      0.0521
   1409 H           2.1390   30.9966   14.3341 H     235  UNL235      0.0521
   1410 H           4.1958   29.1376   13.7049 H     235  UNL235      0.2090
   1411 O           3.9101   30.0180   16.9253 O.3   236  UNL236     -0.3982
   1412 C           2.4943   30.0180   16.9253 C.3   236  UNL236      0.0330
   1413 H           2.1290   29.2490   17.6105 H     236  UNL236      0.0521
   1414 H           2.1291   29.8233   15.9140 H     236  UNL236      0.0521
   1415 H           2.1390   30.9966   17.2565 H     236  UNL236      0.0521
   1416 H           4.1958   29.1376   16.6273 H     236  UNL236      0.2090
   1417 O           3.9101   30.0180   19.8477 O.3   237  UNL237     -0.3982
   1418 C           2.4943   30.0180   19.8477 C.3   237  UNL237      0.0330
   1419 H           2.1290   29.2490   20.5329 H     237  UNL237      0.0521
   1420 H           2.1291   29.8233   18.8364 H     237  UNL237      0.0521
   1421 H           2.1390   30.9966   20.1789 H     237  UNL237      0.0521
   1422 H           4.1958   29.1376   19.5497 H     237  UNL237      0.2090
   1423 O           3.9101   30.0180   22.7701 O.3   238  UNL238     -0.3982
   1424 C           2.4943   30.0180   22.7701 C.3   238  UNL238      0.0330
   1425 H           2.1290   29.2490   23.4552 H     238  UNL238      0.0521
   1426 H           2.1291   29.8233   21.7588 H     238  UNL238      0.0521
   1427 H           2.1390   30.9966   23.1012 H     238  UNL238      0.0521
   1428 H           4.1958   29.1376   22.4720 H     238  UNL238      0.2090
   1429 O           3.9101   30.0180   25.6924 O.3   239  UNL239     -0.3982
   1430 C           2.4943   30.0180   25.6924 C.3   239  UNL239      0.0330
   1431 H           2.1290   29.2490   26.3776 H     239  UNL239      0.0521
   1432 H           2.1291   29.8233   24.6811 H     239  UNL239      0.0521
   1433 H           2.1390   30.9966   26.0236 H     239  UNL239      0.0521
   1434 H           4.1958   29.1376   25.3944 H     239  UNL239      0.2090
   1435 O           5.9101   30.0180   28.6148 O.3   240  UNL240     -0.3982
   1436 C           4.4943   30.0180   28.6148 C.3   240  UNL240      0.0330
   1437 H           4.1290   29.2490   29.3000 H     240  UNL240      0.0521
   1438 H           4.1291   29.8233   27.6035 H     240  UNL240      0.0521
   1439 H           4.1390   30.9966   28.9460 H     240  UNL240      0.0521
   1440 H           6.1958   29.1376   28.3168 H     240  UNL240      0.2090
   1441 O           9.2620   -0.5692   -0.5714 O.3   241  UNL241     -0.3982
   1442 C           7.8462   -0.5692   -0.5714 C.3   241  UNL241      0.0330
   1443 H           7.4809   -0.6580   -1.5976 H     241  UNL241      0.0521
   1444 H           7.4810    0.3575   -0.1222 H     241  UNL241      0.0521
   1445 H           7.4909   -1.4202    0.0144 H     241  UNL241      0.0521
   1446 H           9.5477    0.1964   -1.0984 H     241  UNL241      0.2090
   1447 O           9.3870   -0.4333    2.3342 O.3   242  UNL242     -0.3982
   1448 C           7.9712   -0.4333    2.3342 C.3   242  UNL242      0.0330
   1449 H           7.6059   -1.2949    2.8985 H     242  UNL242      0.0521
   1450 H           7.6060   -0.4768    1.3052 H     242  UNL242      0.0521
   1451 H           7.6159    0.4858    2.8060 H     242  UNL242      0.0521
   1452 H           9.6727   -1.2602    1.9096 H     242  UNL242      0.2090
   1453 O           8.7959   -0.2515    6.1071 O.3   243  UNL243     -0.3982
   1454 C           8.0046   -0.5646    4.9756 C.3   243  UNL243      0.0330
   1455 H           7.8929   -1.6488    4.8965 H     243  UNL243      0.0521
   1456 H           8.4824   -0.1702    4.0754 H     243  UNL243      0.0521
   1457 H           7.0197   -0.1066    5.0930 H     243  UNL243      0.0521
   1458 H           9.6630   -0.6710    5.9742 H     243  UNL243      0.2090
   1459 O           9.2620   -0.3083    8.1789 O.3   244  UNL244     -0.3982
   1460 C           7.8462   -0.3083    8.1789 C.3   244  UNL244      0.0330
   1461 H           7.4809   -1.1699    8.7433 H     244  UNL244      0.0521
   1462 H           7.4810   -0.3518    7.1500 H     244  UNL244      0.0521
   1463 H           7.4909    0.6108    8.6507 H     244  UNL244      0.0521
   1464 H           9.5477   -1.1352    7.7544 H     244  UNL244      0.2090
   1465 O           9.3870   -0.4245   11.0806 O.3   245  UNL245     -0.3982
   1466 C           7.9712   -0.4245   11.0806 C.3   245  UNL245      0.0330
   1467 H           7.6059   -1.1935   11.7658 H     245  UNL245      0.0521
   1468 H           7.6060   -0.6192   10.0693 H     245  UNL245      0.0521
   1469 H           7.6159    0.5541   11.4118 H     245  UNL245      0.0521
   1470 H           9.6727   -1.3049   10.7826 H     245  UNL245      0.2090
   1471 O           7.3870   -0.4245   14.0029 O.3   246  UNL246     -0.3982
   1472 C           5.9712   -0.4245   14.0029 C.3   246  UNL246      0.0330
   1473 H           5.6059   -1.1935   14.6881 H     246  UNL246      0.0521
   1474 H           5.6060   -0.6192   12.9916 H     246  UNL246      0.0521
   1475 H           5.6159    0.5541   14.3341 H     246  UNL246      0.0521
   1476 H           7.6727   -1.3049   13.7049 H     246  UNL246      0.2090
   1477 O           9.3870   -0.5041   17.0144 O.3   247  UNL247     -0.3982
   1478 C           7.9712   -0.5041   17.0144 C.3   247  UNL247      0.0330
   1479 H           7.6059   -1.5310   16.9338 H     247  UNL247      0.0521
   1480 H           7.6060    0.0908   16.1738 H     247  UNL247      0.0521
   1481 H           7.6159   -0.0657   17.9498 H     247  UNL247      0.0521
   1482 H           9.6727   -0.8986   16.1728 H     247  UNL247      0.2090
   1483 O           9.0277   -0.7279   18.9971 O.3   248  UNL248     -0.3982
   1484 C           8.2364   -0.4148   20.1286 C.3   248  UNL248      0.0330
   1485 H           7.9398   -1.3376   20.6335 H     248  UNL248      0.0521
   1486 H           7.3504    0.1410   19.8123 H     248  UNL248      0.0521
   1487 H           8.8242    0.2002   20.8141 H     248  UNL248      0.0521
   1488 H           8.4799   -1.2737   18.4076 H     248  UNL248      0.2090
   1489 O           9.2620   -0.5692   22.8076 O.3   249  UNL249     -0.3982
   1490 C           7.8462   -0.5692   22.8076 C.3   249  UNL249      0.0330
   1491 H           7.4809   -0.6580   21.7814 H     249  UNL249      0.0521
   1492 H           7.4810    0.3575   23.2568 H     249  UNL249      0.0521
   1493 H           7.4909   -1.4202   23.3934 H     249  UNL249      0.0521
   1494 H           9.5477    0.1964   22.2806 H     249  UNL249      0.2090
   1495 O           9.3870   -0.6942   25.7300 O.3   250  UNL250     -0.3982
   1496 C           7.9712   -0.6942   25.7300 C.3   250  UNL250      0.0330
   1497 H           7.6059   -0.7830   24.7038 H     250  UNL250      0.0521
   1498 H           7.6060    0.2325   26.1792 H     250  UNL250      0.0521
   1499 H           7.6159   -1.5452   26.3158 H     250  UNL250      0.0521
   1500 H           9.6727    0.0714   25.2030 H     250  UNL250      0.2090
   1501 O           9.3870   -0.4245   28.6148 O.3   251  UNL251     -0.3982
   1502 C           7.9712   -0.4245   28.6148 C.3   251  UNL251      0.0330
   1503 H           7.6059   -1.1935   29.3000 H     251  UNL251      0.0521
   1504 H           7.6060   -0.6192   27.6035 H     251  UNL251      0.0521
   1505 H           7.6159    0.5541   28.9460 H     251  UNL251      0.0521
   1506 H           9.6727   -1.3049   28.3168 H     251  UNL251      0.2090
   1507 O           7.3870    2.6197   -0.6090 O.3   252  UNL252     -0.3982
   1508 C           5.9712    2.6197   -0.6090 C.3   252  UNL252      0.0330
   1509 H           5.6059    1.8507    0.0762 H     252  UNL252      0.0521
   1510 H           5.6060    2.4250   -1.6203 H     252  UNL252      0.0521
   1511 H           5.6159    3.5983   -0.2778 H     252  UNL252      0.0521
   1512 H           7.6727    1.7393   -0.9070 H     252  UNL252      0.2090
   1513 O           7.3870    2.6197    2.3134 O.3   253  UNL253     -0.3982
   1514 C           5.9712    2.6197    2.3134 C.3   253  UNL253      0.0330
   1515 H           5.6059    1.8507    2.9986 H     253  UNL253      0.0521
   1516 H           5.6060    2.4250    1.3021 H     253  UNL253      0.0521
   1517 H           5.6159    3.5983    2.6446 H     253  UNL253      0.0521
   1518 H           7.6727    1.7393    2.0154 H     253  UNL253      0.2090
   1519 O           7.3870    2.6197    5.2358 O.3   254  UNL254     -0.3982
   1520 C           5.9712    2.6197    5.2358 C.3   254  UNL254      0.0330
   1521 H           5.6059    1.8507    5.9210 H     254  UNL254      0.0521
   1522 H           5.6060    2.4250    4.2245 H     254  UNL254      0.0521
   1523 H           5.6159    3.5983    5.5670 H     254  UNL254      0.0521
   1524 H           7.6727    1.7393    4.9378 H     254  UNL254      0.2090
   1525 O           7.3870    2.6197    8.1582 O.3   255  UNL255     -0.3982
   1526 C           5.9712    2.6197    8.1582 C.3   255  UNL255      0.0330
   1527 H           5.6059    1.8507    8.8434 H     255  UNL255      0.0521
   1528 H           5.6060    2.4250    7.1469 H     255  UNL255      0.0521
   1529 H           5.6159    3.5983    8.4894 H     255  UNL255      0.0521
   1530 H           7.6727    1.7393    7.8602 H     255  UNL255      0.2090
   1531 O           9.3870    2.6197   11.0806 O.3   256  UNL256     -0.3982
   1532 C           7.9712    2.6197   11.0806 C.3   256  UNL256      0.0330
   1533 H           7.6059    1.8507   11.7658 H     256  UNL256      0.0521
   1534 H           7.6060    2.4250   10.0693 H     256  UNL256      0.0521
   1535 H           7.6159    3.5983   11.4118 H     256  UNL256      0.0521
   1536 H           9.6727    1.7393   10.7826 H     256  UNL256      0.2090
   1537 O           7.3870    2.6197   14.0029 O.3   257  UNL257     -0.3982
   1538 C           5.9712    2.6197   14.0029 C.3   257  UNL257      0.0330
   1539 H           5.6059    1.8507   14.6881 H     257  UNL257      0.0521
   1540 H           5.6060    2.4250   12.9916 H     257  UNL257      0.0521
   1541 H           5.6159    3.5983   14.3341 H     257  UNL257      0.0521
   1542 H           7.6727    1.7393   13.7049 H     257  UNL257      0.2090
   1543 O           7.3870    2.6197   16.9253 O.3   258  UNL258     -0.3982
   1544 C           5.9712    2.6197   16.9253 C.3   258  UNL258      0.0330
   1545 H           5.6059    1.8507   17.6105 H     258  UNL258      0.0521
   1546 H           5.6060    2.4250   15.9140 H     258  UNL258      0.0521
   1547 H           5.6159    3.5983   17.2565 H     258  UNL258      0.0521
   1548 H           7.6727    1.7393   16.6273 H     258  UNL258      0.2090
   1549 O           7.3870    2.6197   19.8477 O.3   259  UNL259     -0.3982
   1550 C           5.9712    2.6197   19.8477 C.3   259  UNL259      0.0330
   1551 H           5.6059    1.8507   20.5329 H     259  UNL259      0.0521
   1552 H           5.6060    2.4250   18.8364 H     259  UNL259      0.0521
   1553 H           5.6159    3.5983   20.1789 H     259  UNL259      0.0521
   1554 H           7.6727    1.7393   19.5497 H     259  UNL259      0.2090
   1555 O           7.3870    2.6197   22.7701 O.3   260  UNL260     -0.3982
   1556 C           5.9712    2.6197   22.7701 C.3   260  UNL260      0.0330
   1557 H           5.6059    1.8507   23.4552 H     260  UNL260      0.0521
   1558 H           5.6060    2.4250   21.7588 H     260  UNL260      0.0521
   1559 H           5.6159    3.5983   23.1012 H     260  UNL260      0.0521
   1560 H           7.6727    1.7393   22.4720 H     260  UNL260      0.2090
   1561 O           7.3870    2.6197   25.6924 O.3   261  UNL261     -0.3982
   1562 C           5.9712    2.6197   25.6924 C.3   261  UNL261      0.0330
   1563 H           5.6059    1.8507   26.3776 H     261  UNL261      0.0521
   1564 H           5.6060    2.4250   24.6811 H     261  UNL261      0.0521
   1565 H           5.6159    3.5983   26.0236 H     261  UNL261      0.0521
   1566 H           7.6727    1.7393   25.3944 H     261  UNL261      0.2090
   1567 O           7.3870    2.6197   28.6148 O.3   262  UNL262     -0.3982
   1568 C           5.9712    2.6197   28.6148 C.3   262  UNL262      0.0330
   1569 H           5.6059    1.8507   29.3000 H     262  UNL262      0.0521
   1570 H           5.6060    2.4250   27.6035 H     262  UNL262      0.0521
   1571 H           5.6159    3.5983   28.9460 H     262  UNL262      0.0521
   1572 H           7.6727    1.7393   28.3168 H     262  UNL262      0.2090
   1573 O           7.3870    5.6640   -0.6090 O.3   263  UNL263     -0.3982
   1574 C           5.9712    5.6640   -0.6090 C.3   263  UNL263      0.0330
   1575 H           5.6059    4.8950    0.0762 H     263  UNL263      0.0521
   1576 H           5.6060    5.4693   -1.6203 H     263  UNL263      0.0521
   1577 H           5.6159    6.6426   -0.2778 H     263  UNL263      0.0521
   1578 H           7.6727    4.7836   -0.9070 H     263  UNL263      0.2090
   1579 O           7.3870    5.6640    2.3134 O.3   264  UNL264     -0.3982
   1580 C           5.9712    5.6640    2.3134 C.3   264  UNL264      0.0330
   1581 H           5.6059    4.8950    2.9986 H     264  UNL264      0.0521
   1582 H           5.6060    5.4693    1.3021 H     264  UNL264      0.0521
   1583 H           5.6159    6.6426    2.6446 H     264  UNL264      0.0521
   1584 H           7.6727    4.7836    2.0154 H     264  UNL264      0.2090
   1585 O           7.3870    5.6640    5.2358 O.3   265  UNL265     -0.3982
   1586 C           5.9712    5.6640    5.2358 C.3   265  UNL265      0.0330
   1587 H           5.6059    4.8950    5.9210 H     265  UNL265      0.0521
   1588 H           5.6060    5.4693    4.2245 H     265  UNL265      0.0521
   1589 H           5.6159    6.6426    5.5670 H     265  UNL265      0.0521
   1590 H           7.6727    4.7836    4.9378 H     265  UNL265      0.2090
   1591 O           7.7472    5.3766    8.9045 O.3   266  UNL266     -0.3982
   1592 C           8.5971    5.4171    7.7729 C.3   266  UNL266      0.0330
   1593 H           9.0532    6.4071    7.6939 H     266  UNL266      0.0521
   1594 H           8.0176    5.1983    6.8728 H     266  UNL266      0.0521
   1595 H           9.3812    4.6654    7.8904 H     266  UNL266      0.0521
   1596 H           7.0621    6.0538    8.7716 H     266  UNL266      0.2090
   1597 O           7.3870    5.6640   11.0806 O.3   267  UNL267     -0.3982
   1598 C           5.9712    5.6640   11.0806 C.3   267  UNL267      0.0330
   1599 H           5.6059    4.8950   11.7658 H     267  UNL267      0.0521
   1600 H           5.6060    5.4693   10.0693 H     267  UNL267      0.0521
   1601 H           5.6159    6.6426   11.4118 H     267  UNL267      0.0521
   1602 H           7.6727    4.7836   10.7826 H     267  UNL267      0.2090
   1603 O           8.7959    5.8370   14.8742 O.3   268  UNL268     -0.3982
   1604 C           8.0046    5.5239   13.7427 C.3   268  UNL268      0.0330
   1605 H           7.8929    4.4397   13.6636 H     268  UNL268      0.0521
   1606 H           8.4824    5.9183   12.8426 H     268  UNL268      0.0521
   1607 H           7.0197    5.9819   13.8602 H     268  UNL268      0.0521
   1608 H           9.6630    5.4175   14.7414 H     268  UNL268      0.2090
   1609 O           9.2620    5.5193   16.9628 O.3   269  UNL269     -0.3982
   1610 C           7.8462    5.5193   16.9628 C.3   269  UNL269      0.0330
   1611 H           7.4809    5.4305   15.9367 H     269  UNL269      0.0521
   1612 H           7.4810    6.4460   17.4121 H     269  UNL269      0.0521
   1613 H           7.4909    4.6683   17.5486 H     269  UNL269      0.0521
   1614 H           9.5477    6.2849   16.4358 H     269  UNL269      0.2090
   1615 O           8.0764    6.0512   20.7190 O.3   270  UNL270     -0.3982
   1616 C           8.2556    5.2194   19.5874 C.3   270  UNL270      0.0330
   1617 H           9.3069    4.9316   19.5084 H     270  UNL270      0.0521
   1618 H           7.9448    5.7553   18.6873 H     270  UNL270      0.0521
   1619 H           7.6425    4.3228   19.7049 H     270  UNL270      0.0521
   1620 H           8.6323    6.8379   20.5861 H     270  UNL270      0.2090
   1621 O           9.2620    5.5390   22.6116 O.3   271  UNL271     -0.3982
   1622 C           7.8462    5.5390   22.6116 C.3   271  UNL271      0.0330
   1623 H           7.4809    6.5367   22.3560 H     271  UNL271      0.0521
   1624 H           7.4810    5.2476   23.5994 H     271  UNL271      0.0521
   1625 H           7.4909    4.8217   21.8681 H     271  UNL271      0.0521
   1626 H           9.5477    6.1843   23.2806 H     271  UNL271      0.2090
   1627 O           8.7959    6.4794   25.4814 O.3   272  UNL272     -0.3982
   1628 C           8.0046    5.3118   25.6048 C.3   272  UNL272      0.0330
   1629 H           7.8929    5.0563   26.6615 H     272  UNL272      0.0521
   1630 H           8.4824    4.4885   25.0683 H     272  UNL272      0.0521
   1631 H           7.0197    5.5028   25.1723 H     272  UNL272      0.0521
   1632 H           9.6630    6.2796   25.8734 H     272  UNL272      0.2090
   1633 O           9.2620    5.7355   28.4437 O.3   273  UNL273     -0.3982
   1634 C           7.8462    5.7355   28.4437 C.3   273  UNL273      0.0330
   1635 H           7.4809    6.1511   29.3861 H     273  UNL273      0.0521
   1636 H           7.4810    4.7133   28.3181 H     273  UNL273      0.0521
   1637 H           7.4909    6.3515   27.6143 H     273  UNL273      0.0521
   1638 H           9.5477    5.1813   29.1899 H     273  UNL273      0.2090
   1639 O           7.3870    8.7082   -0.6090 O.3   274  UNL274     -0.3982
   1640 C           5.9712    8.7082   -0.6090 C.3   274  UNL274      0.0330
   1641 H           5.6059    7.9392    0.0762 H     274  UNL274      0.0521
   1642 H           5.6060    8.5135   -1.6203 H     274  UNL274      0.0521
   1643 H           5.6159    9.6868   -0.2778 H     274  UNL274      0.0521
   1644 H           7.6727    7.8278   -0.9070 H     274  UNL274      0.2090
   1645 O           7.3870    8.7082    2.3134 O.3   275  UNL275     -0.3982
   1646 C           5.9712    8.7082    2.3134 C.3   275  UNL275      0.0330
   1647 H           5.6059    7.9392    2.9986 H     275  UNL275      0.0521
   1648 H           5.6060    8.5135    1.3021 H     275  UNL275      0.0521
   1649 H           5.6159    9.6868    2.6446 H     275  UNL275      0.0521
   1650 H           7.6727    7.8278    2.0154 H     275  UNL275      0.2090
   1651 O           7.3870    8.7082    5.2358 O.3   276  UNL276     -0.3982
   1652 C           5.9712    8.7082    5.2358 C.3   276  UNL276      0.0330
   1653 H           5.6059    7.9392    5.9210 H     276  UNL276      0.0521
   1654 H           5.6060    8.5135    4.2245 H     276  UNL276      0.0521
   1655 H           5.6159    9.6868    5.5670 H     276  UNL276      0.0521
   1656 H           7.6727    7.8278    4.9378 H     276  UNL276      0.2090
   1657 O           7.3870    8.7082    8.1582 O.3   277  UNL277     -0.3982
   1658 C           5.9712    8.7082    8.1582 C.3   277  UNL277      0.0330
   1659 H           5.6059    7.9392    8.8434 H     277  UNL277      0.0521
   1660 H           5.6060    8.5135    7.1469 H     277  UNL277      0.0521
   1661 H           5.6159    9.6868    8.4894 H     277  UNL277      0.0521
   1662 H           7.6727    7.8278    7.8602 H     277  UNL277      0.2090
   1663 O           7.3870    8.7082   11.0806 O.3   278  UNL278     -0.3982
   1664 C           5.9712    8.7082   11.0806 C.3   278  UNL278      0.0330
   1665 H           5.6059    7.9392   11.7658 H     278  UNL278      0.0521
   1666 H           5.6060    8.5135   10.0693 H     278  UNL278      0.0521
   1667 H           5.6159    9.6868   11.4118 H     278  UNL278      0.0521
   1668 H           7.6727    7.8278   10.7826 H     278  UNL278      0.2090
   1669 O           7.3870    8.7082   14.0029 O.3   279  UNL279     -0.3982
   1670 C           5.9712    8.7082   14.0029 C.3   279  UNL279      0.0330
   1671 H           5.6059    7.9392   14.6881 H     279  UNL279      0.0521
   1672 H           5.6060    8.5135   12.9916 H     279  UNL279      0.0521
   1673 H           5.6159    9.6868   14.3341 H     279  UNL279      0.0521
   1674 H           7.6727    7.8278   13.7049 H     279  UNL279      0.2090
   1675 O           7.3870    8.7082   16.9253 O.3   280  UNL280     -0.3982
   1676 C           5.9712    8.7082   16.9253 C.3   280  UNL280      0.0330
   1677 H           5.6059    7.9392   17.6105 H     280  UNL280      0.0521
   1678 H           5.6060    8.5135   15.9140 H     280  UNL280      0.0521
   1679 H           5.6159    9.6868   17.2565 H     280  UNL280      0.0521
   1680 H           7.6727    7.8278   16.6273 H     280  UNL280      0.2090
   1681 O           7.3870    8.7082   19.8477 O.3   281  UNL281     -0.3982
   1682 C           5.9712    8.7082   19.8477 C.3   281  UNL281      0.0330
   1683 H           5.6059    7.9392   20.5329 H     281  UNL281      0.0521
   1684 H           5.6060    8.5135   18.8364 H     281  UNL281      0.0521
   1685 H           5.6159    9.6868   20.1789 H     281  UNL281      0.0521
   1686 H           7.6727    7.8278   19.5497 H     281  UNL281      0.2090
   1687 O           7.3870    8.7082   22.7701 O.3   282  UNL282     -0.3982
   1688 C           5.9712    8.7082   22.7701 C.3   282  UNL282      0.0330
   1689 H           5.6059    7.9392   23.4552 H     282  UNL282      0.0521
   1690 H           5.6060    8.5135   21.7588 H     282  UNL282      0.0521
   1691 H           5.6159    9.6868   23.1012 H     282  UNL282      0.0521
   1692 H           7.6727    7.8278   22.4720 H     282  UNL282      0.2090
   1693 O           7.3870    8.7082   25.6924 O.3   283  UNL283     -0.3982
   1694 C           5.9712    8.7082   25.6924 C.3   283  UNL283      0.0330
   1695 H           5.6059    7.9392   26.3776 H     283  UNL283      0.0521
   1696 H           5.6060    8.5135   24.6811 H     283  UNL283      0.0521
   1697 H           5.6159    9.6868   26.0236 H     283  UNL283      0.0521
   1698 H           7.6727    7.8278   25.3944 H     283  UNL283      0.2090
   1699 O           7.3870    8.7082   28.6148 O.3   284  UNL284     -0.3982
   1700 C           5.9712    8.7082   28.6148 C.3   284  UNL284      0.0330
   1701 H           5.6059    7.9392   29.3000 H     284  UNL284      0.0521
   1702 H           5.6060    8.5135   27.6035 H     284  UNL284      0.0521
   1703 H           5.6159    9.6868   28.9460 H     284  UNL284      0.0521
   1704 H           7.6727    7.8278   28.3168 H     284  UNL284      0.2090
   1705 O           6.5495   12.3849    0.3134 O.3   285  UNL285     -0.3982
   1706 C           7.3968   11.2506    0.3134 C.3   285  UNL285      0.0330
   1707 H           8.2315   11.4182    0.9986 H     285  UNL285      0.0521
   1708 H           7.7713   11.0746   -0.6979 H     285  UNL285      0.0521
   1709 H           6.8254   10.3803    0.6446 H     285  UNL285      0.0521
   1710 H           7.0839   13.1407    0.0154 H     285  UNL285      0.2090
   1711 O           7.3870   11.7525    3.2358 O.3   286  UNL286     -0.3982
   1712 C           5.9712   11.7525    3.2358 C.3   286  UNL286      0.0330
   1713 H           5.6059   10.9835    3.9210 H     286  UNL286      0.0521
   1714 H           5.6060   11.5578    2.2245 H     286  UNL286      0.0521
   1715 H           5.6159   12.7311    3.5670 H     286  UNL286      0.0521
   1716 H           7.6727   10.8721    2.9378 H     286  UNL286      0.2090
   1717 O           7.3870   11.7525    6.1582 O.3   287  UNL287     -0.3982
   1718 C           5.9712   11.7525    6.1582 C.3   287  UNL287      0.0330
   1719 H           5.6059   10.9835    6.8434 H     287  UNL287      0.0521
   1720 H           5.6060   11.5578    5.1469 H     287  UNL287      0.0521
   1721 H           5.6159   12.7311    6.4894 H     287  UNL287      0.0521
   1722 H           7.6727   10.8721    5.8602 H     287  UNL287      0.2090
   1723 O           7.3870   11.7525    9.0806 O.3   288  UNL288     -0.3982
   1724 C           5.9712   11.7525    9.0806 C.3   288  UNL288      0.0330
   1725 H           5.6059   10.9835    9.7658 H     288  UNL288      0.0521
   1726 H           5.6060   11.5578    8.0693 H     288  UNL288      0.0521
   1727 H           5.6159   12.7311    9.4118 H     288  UNL288      0.0521
   1728 H           7.6727   10.8721    8.7826 H     288  UNL288      0.2090
   1729 O           7.3870   11.7525   12.0029 O.3   289  UNL289     -0.3982
   1730 C           5.9712   11.7525   12.0029 C.3   289  UNL289      0.0330
   1731 H           5.6059   10.9835   12.6881 H     289  UNL289      0.0521
   1732 H           5.6060   11.5578   10.9916 H     289  UNL289      0.0521
   1733 H           5.6159   12.7311   12.3341 H     289  UNL289      0.0521
   1734 H           7.6727   10.8721   11.7049 H     289  UNL289      0.2090
   1735 O           7.3870   11.7525   14.9253 O.3   290  UNL290     -0.3982
   1736 C           5.9712   11.7525   14.9253 C.3   290  UNL290      0.0330
   1737 H           5.6059   10.9835   15.6105 H     290  UNL290      0.0521
   1738 H           5.6060   11.5578   13.9140 H     290  UNL290      0.0521
   1739 H           5.6159   12.7311   15.2565 H     290  UNL290      0.0521
   1740 H           7.6727   10.8721   14.6273 H     290  UNL290      0.2090
   1741 O           7.3870   11.7525   17.8477 O.3   291  UNL291     -0.3982
   1742 C           5.9712   11.7525   17.8477 C.3   291  UNL291      0.0330
   1743 H           5.6059   10.9835   18.5329 H     291  UNL291      0.0521
   1744 H           5.6060   11.5578   16.8364 H     291  UNL291      0.0521
   1745 H           5.6159   12.7311   18.1789 H     291  UNL291      0.0521
   1746 H           7.6727   10.8721   17.5497 H     291  UNL291      0.2090
   1747 O           7.9514   12.4854   20.7701 O.3   292  UNL292     -0.3982
   1748 C           6.9712   11.4638   20.7701 C.3   292  UNL292      0.0330
   1749 H           7.2733   10.6678   21.4552 H     292  UNL292      0.0521
   1750 H           6.8589   11.0654   19.7588 H     292  UNL292      0.0521
   1751 H           6.0191   11.8849   21.1012 H     292  UNL292      0.0521
   1752 H           8.7845   12.0821   20.4720 H     292  UNL292      0.2090
   1753 O           7.7807   10.7772   24.3174 O.3   293  UNL293     -0.3982
   1754 C           8.4648   11.9766   24.6305 C.3   293  UNL293      0.0330
   1755 H           8.6342   12.0297   25.7088 H     293  UNL293      0.0521
   1756 H           7.8705   12.8325   24.3016 H     293  UNL293      0.0521
   1757 H           9.4264   11.9828   24.1120 H     293  UNL293      0.0521
   1758 H           6.9319   10.8004   24.7914 H     293  UNL293      0.2090
   1759 O           9.2620   11.7979   28.7039 O.3   294  UNL294     -0.3982
   1760 C           7.8462   11.7979   28.7039 C.3   294  UNL294      0.0330
   1761 H           7.4809   10.7710   28.6233 H     294  UNL294      0.0521
   1762 H           7.4810   12.3928   27.8633 H     294  UNL294      0.0521
   1763 H           7.4909   12.2363   29.6393 H     294  UNL294      0.0521
   1764 H           9.5477   11.4034   27.8623 H     294  UNL294      0.2090
   1765 O           7.3870   14.5019   -0.6349 O.3   295  UNL295     -0.3982
   1766 C           5.9712   14.5019   -0.6349 C.3   295  UNL295      0.0330
   1767 H           5.6059   14.8704   -1.5967 H     295  UNL295      0.0521
   1768 H           5.6060   15.1392    0.1741 H     295  UNL295      0.0521
   1769 H           5.6159   13.4805   -0.4798 H     295  UNL295      0.0521
   1770 H           7.6727   15.4208   -0.7744 H     295  UNL295      0.2090
   1771 O           7.3870   14.7967    2.3134 O.3   296  UNL296     -0.3982
   1772 C           5.9712   14.7967    2.3134 C.3   296  UNL296      0.0330
   1773 H           5.6059   14.0277    2.9986 H     296  UNL296      0.0521
   1774 H           5.6060   14.6020    1.3021 H     296  UNL296      0.0521
   1775 H           5.6159   15.7753    2.6446 H     296  UNL296      0.0521
   1776 H           7.6727   13.9163    2.0154 H     296  UNL296      0.2090
   1777 O           7.3870   14.7967    5.2358 O.3   297  UNL297     -0.3982
   1778 C           5.9712   14.7967    5.2358 C.3   297  UNL297      0.0330
   1779 H           5.6059   14.0277    5.9210 H     297  UNL297      0.0521
   1780 H           5.6060   14.6020    4.2245 H     297  UNL297      0.0521
   1781 H           5.6159   15.7753    5.5670 H     297  UNL297      0.0521
   1782 H           7.6727   13.9163    4.9378 H     297  UNL297      0.2090
   1783 O           7.3870   14.7967    8.1582 O.3   298  UNL298     -0.3982
   1784 C           5.9712   14.7967    8.1582 C.3   298  UNL298      0.0330
   1785 H           5.6059   14.0277    8.8434 H     298  UNL298      0.0521
   1786 H           5.6060   14.6020    7.1469 H     298  UNL298      0.0521
   1787 H           5.6159   15.7753    8.4894 H     298  UNL298      0.0521
   1788 H           7.6727   13.9163    7.8602 H     298  UNL298      0.2090
   1789 O           7.3870   14.7967   11.0806 O.3   299  UNL299     -0.3982
   1790 C           5.9712   14.7967   11.0806 C.3   299  UNL299      0.0330
   1791 H           5.6059   14.0277   11.7658 H     299  UNL299      0.0521
   1792 H           5.6060   14.6020   10.0693 H     299  UNL299      0.0521
   1793 H           5.6159   15.7753   11.4118 H     299  UNL299      0.0521
   1794 H           7.6727   13.9163   10.7826 H     299  UNL299      0.2090
   1795 O           7.3870   14.5019   13.9770 O.3   300  UNL300     -0.3982
   1796 C           5.9712   14.5019   13.9770 C.3   300  UNL300      0.0330
   1797 H           5.6059   14.8704   13.0152 H     300  UNL300      0.0521
   1798 H           5.6060   15.1392   14.7860 H     300  UNL300      0.0521
   1799 H           5.6159   13.4805   14.1321 H     300  UNL300      0.0521
   1800 H           7.6727   15.4208   13.8375 H     300  UNL300      0.2090
   1801 O           7.3870   14.7967   16.9253 O.3   301  UNL301     -0.3982
   1802 C           5.9712   14.7967   16.9253 C.3   301  UNL301      0.0330
   1803 H           5.6059   14.0277   17.6105 H     301  UNL301      0.0521
   1804 H           5.6060   14.6020   15.9140 H     301  UNL301      0.0521
   1805 H           5.6159   15.7753   17.2565 H     301  UNL301      0.0521
   1806 H           7.6727   13.9163   16.6273 H     301  UNL301      0.2090
   1807 O           7.3870   14.5019   19.8217 O.3   302  UNL302     -0.3982
   1808 C           5.9712   14.5019   19.8217 C.3   302  UNL302      0.0330
   1809 H           5.6059   14.8704   18.8599 H     302  UNL302      0.0521
   1810 H           5.6060   15.1392   20.6307 H     302  UNL302      0.0521
   1811 H           5.6159   13.4805   19.9768 H     302  UNL302      0.0521
   1812 H           7.6727   15.4208   19.6822 H     302  UNL302      0.2090
   1813 O           7.3870   14.7967   22.7701 O.3   303  UNL303     -0.3982
   1814 C           5.9712   14.7967   22.7701 C.3   303  UNL303      0.0330
   1815 H           5.6059   14.0277   23.4552 H     303  UNL303      0.0521
   1816 H           5.6060   14.6020   21.7588 H     303  UNL303      0.0521
   1817 H           5.6159   15.7753   23.1012 H     303  UNL303      0.0521
   1818 H           7.6727   13.9163   22.4720 H     303  UNL303      0.2090
   1819 O           7.3870   14.7967   25.6924 O.3   304  UNL304     -0.3982
   1820 C           5.9712   14.7967   25.6924 C.3   304  UNL304      0.0330
   1821 H           5.6059   14.0277   26.3776 H     304  UNL304      0.0521
   1822 H           5.6060   14.6020   24.6811 H     304  UNL304      0.0521
   1823 H           5.6159   15.7753   26.0236 H     304  UNL304      0.0521
   1824 H           7.6727   13.9163   25.3944 H     304  UNL304      0.2090
   1825 O           7.3870   14.7967   28.6148 O.3   305  UNL305     -0.3982
   1826 C           5.9712   14.7967   28.6148 C.3   305  UNL305      0.0330
   1827 H           5.6059   14.0277   29.3000 H     305  UNL305      0.0521
   1828 H           5.6060   14.6020   27.6035 H     305  UNL305      0.0521
   1829 H           5.6159   15.7753   28.9460 H     305  UNL305      0.0521
   1830 H           7.6727   13.9163   28.3168 H     305  UNL305      0.2090
   1831 O           7.3870   17.6495   -0.8026 O.3   306  UNL306     -0.3982
   1832 C           5.9712   17.6495   -0.8026 C.3   306  UNL306      0.0330
   1833 H           5.6059   18.6587   -0.5965 H     306  UNL306      0.0521
   1834 H           5.6060   16.9558   -0.0413 H     306  UNL306      0.0521
   1835 H           5.6159   17.3292   -1.7848 H     306  UNL306      0.0521
   1836 H           7.6727   17.9376    0.0811 H     306  UNL306      0.2090
   1837 O           7.3870   17.8410    2.3134 O.3   307  UNL307     -0.3982
   1838 C           5.9712   17.8410    2.3134 C.3   307  UNL307      0.0330
   1839 H           5.6059   17.0720    2.9986 H     307  UNL307      0.0521
   1840 H           5.6060   17.6463    1.3021 H     307  UNL307      0.0521
   1841 H           5.6159   18.8196    2.6446 H     307  UNL307      0.0521
   1842 H           7.6727   16.9606    2.0154 H     307  UNL307      0.2090
   1843 O           7.3870   17.8410    5.2358 O.3   308  UNL308     -0.3982
   1844 C           5.9712   17.8410    5.2358 C.3   308  UNL308      0.0330
   1845 H           5.6059   17.0720    5.9210 H     308  UNL308      0.0521
   1846 H           5.6060   17.6463    4.2245 H     308  UNL308      0.0521
   1847 H           5.6159   18.8196    5.5670 H     308  UNL308      0.0521
   1848 H           7.6727   16.9606    4.9378 H     308  UNL308      0.2090
   1849 O           7.3870   17.8410    8.1582 O.3   309  UNL309     -0.3982
   1850 C           5.9712   17.8410    8.1582 C.3   309  UNL309      0.0330
   1851 H           5.6059   17.0720    8.8434 H     309  UNL309      0.0521
   1852 H           5.6060   17.6463    7.1469 H     309  UNL309      0.0521
   1853 H           5.6159   18.8196    8.4894 H     309  UNL309      0.0521
   1854 H           7.6727   16.9606    7.8602 H     309  UNL309      0.2090
   1855 O           9.3870   17.5713   11.1181 O.3   310  UNL310     -0.3982
   1856 C           7.9712   17.5713   11.1181 C.3   310  UNL310      0.0330
   1857 H           7.6059   17.4825   10.0919 H     310  UNL310      0.0521
   1858 H           7.6060   18.4980   11.5673 H     310  UNL310      0.0521
   1859 H           7.6159   16.7203   11.7039 H     310  UNL310      0.0521
   1860 H           9.6727   18.3369   10.5911 H     310  UNL310      0.2090
   1861 O           8.7959   18.0140   14.8742 O.3   311  UNL311     -0.3982
   1862 C           8.0046   17.7009   13.7427 C.3   311  UNL311      0.0330
   1863 H           7.8929   16.6167   13.6636 H     311  UNL311      0.0521
   1864 H           8.4824   18.0953   12.8426 H     311  UNL311      0.0521
   1865 H           7.0197   18.1589   13.8602 H     311  UNL311      0.0521
   1866 H           9.6630   17.5945   14.7414 H     311  UNL311      0.2090
   1867 O           9.3870   17.5713   16.9628 O.3   312  UNL312     -0.3982
   1868 C           7.9712   17.5713   16.9628 C.3   312  UNL312      0.0330
   1869 H           7.6059   17.4825   15.9367 H     312  UNL312      0.0521
   1870 H           7.6060   18.4980   17.4121 H     312  UNL312      0.0521
   1871 H           7.6159   16.7203   17.5486 H     312  UNL312      0.0521
   1872 H           9.6727   18.3369   16.4358 H     312  UNL312      0.2090
   1873 O           7.3870   17.6495   19.6541 O.3   313  UNL313     -0.3982
   1874 C           5.9712   17.6495   19.6541 C.3   313  UNL313      0.0330
   1875 H           5.6059   18.6587   19.8601 H     313  UNL313      0.0521
   1876 H           5.6060   16.9558   20.4153 H     313  UNL313      0.0521
   1877 H           5.6159   17.3292   18.6719 H     313  UNL313      0.0521
   1878 H           7.6727   17.9376   20.5378 H     313  UNL313      0.2090
   1879 O           7.3870   17.8410   22.7701 O.3   314  UNL314     -0.3982
   1880 C           5.9712   17.8410   22.7701 C.3   314  UNL314      0.0330
   1881 H           5.6059   17.0720   23.4552 H     314  UNL314      0.0521
   1882 H           5.6060   17.6463   21.7588 H     314  UNL314      0.0521
   1883 H           5.6159   18.8196   23.1012 H     314  UNL314      0.0521
   1884 H           7.6727   16.9606   22.4720 H     314  UNL314      0.2090
   1885 O           7.3870   17.8410   25.6924 O.3   315  UNL315     -0.3982
   1886 C           5.9712   17.8410   25.6924 C.3   315  UNL315      0.0330
   1887 H           5.6059   17.0720   26.3776 H     315  UNL315      0.0521
   1888 H           5.6060   17.6463   24.6811 H     315  UNL315      0.0521
   1889 H           5.6159   18.8196   26.0236 H     315  UNL315      0.0521
   1890 H           7.6727   16.9606   25.3944 H     315  UNL315      0.2090
   1891 O           7.3870   17.8410   28.6148 O.3   316  UNL316     -0.3982
   1892 C           5.9712   17.8410   28.6148 C.3   316  UNL316      0.0330
   1893 H           5.6059   17.0720   29.3000 H     316  UNL316      0.0521
   1894 H           5.6060   17.6463   27.6035 H     316  UNL316      0.0521
   1895 H           5.6159   18.8196   28.9460 H     316  UNL316      0.0521
   1896 H           7.6727   16.9606   28.3168 H     316  UNL316      0.2090
   1897 O           7.3870   20.8852   -0.6090 O.3   317  UNL317     -0.3982
   1898 C           5.9712   20.8852   -0.6090 C.3   317  UNL317      0.0330
   1899 H           5.6059   20.1162    0.0762 H     317  UNL317      0.0521
   1900 H           5.6060   20.6905   -1.6203 H     317  UNL317      0.0521
   1901 H           5.6159   21.8638   -0.2778 H     317  UNL317      0.0521
   1902 H           7.6727   20.0048   -0.9070 H     317  UNL317      0.2090
   1903 O           9.3870   20.6155    2.3510 O.3   318  UNL318     -0.3982
   1904 C           7.9712   20.6155    2.3510 C.3   318  UNL318      0.0330
   1905 H           7.6059   20.5268    1.3248 H     318  UNL318      0.0521
   1906 H           7.6060   21.5422    2.8002 H     318  UNL318      0.0521
   1907 H           7.6159   19.7645    2.9368 H     318  UNL318      0.0521
   1908 H           9.6727   21.3812    1.8240 H     318  UNL318      0.2090
   1909 O           9.3870   20.6155    5.2733 O.3   319  UNL319     -0.3982
   1910 C           7.9712   20.6155    5.2733 C.3   319  UNL319      0.0330
   1911 H           7.6059   20.5268    4.2472 H     319  UNL319      0.0521
   1912 H           7.6060   21.5422    5.7226 H     319  UNL319      0.0521
   1913 H           7.6159   19.7645    5.8591 H     319  UNL319      0.0521
   1914 H           9.6727   21.3812    4.7463 H     319  UNL319      0.2090
   1915 O           8.7959   21.0582    9.0295 O.3   320  UNL320     -0.3982
   1916 C           8.0046   20.7452    7.8979 C.3   320  UNL320      0.0330
   1917 H           7.8929   19.6609    7.8189 H     320  UNL320      0.0521
   1918 H           8.4824   21.1396    6.9978 H     320  UNL320      0.0521
   1919 H           7.0197   21.2032    8.0154 H     320  UNL320      0.0521
   1920 H           9.6630   20.6387    8.8966 H     320  UNL320      0.2090
   1921 O           9.3870   20.6937   10.8870 O.3   321  UNL321     -0.3982
   1922 C           7.9712   20.6937   10.8870 C.3   321  UNL321      0.0330
   1923 H           7.6059   21.7029   11.0930 H     321  UNL321      0.0521
   1924 H           7.6060   20.0001   11.6482 H     321  UNL321      0.0521
   1925 H           7.6159   20.3734    9.9047 H     321  UNL321      0.0521
   1926 H           9.6727   20.9819   11.7706 H     321  UNL321      0.2090
   1927 O           9.3870   20.8852   14.0029 O.3   322  UNL322     -0.3982
   1928 C           7.9712   20.8852   14.0029 C.3   322  UNL322      0.0330
   1929 H           7.6059   20.1162   14.6881 H     322  UNL322      0.0521
   1930 H           7.6060   20.6905   12.9916 H     322  UNL322      0.0521
   1931 H           7.6159   21.8638   14.3341 H     322  UNL322      0.0521
   1932 H           9.6727   20.0048   13.7049 H     322  UNL322      0.2090
   1933 O           7.3870   20.8852   16.9253 O.3   323  UNL323     -0.3982
   1934 C           5.9712   20.8852   16.9253 C.3   323  UNL323      0.0330
   1935 H           5.6059   20.1162   17.6105 H     323  UNL323      0.0521
   1936 H           5.6060   20.6905   15.9140 H     323  UNL323      0.0521
   1937 H           5.6159   21.8638   17.2565 H     323  UNL323      0.0521
   1938 H           7.6727   20.0048   16.6273 H     323  UNL323      0.2090
   1939 O           7.3870   20.8852   19.8477 O.3   324  UNL324     -0.3982
   1940 C           5.9712   20.8852   19.8477 C.3   324  UNL324      0.0330
   1941 H           5.6059   20.1162   20.5329 H     324  UNL324      0.0521
   1942 H           5.6060   20.6905   18.8364 H     324  UNL324      0.0521
   1943 H           5.6159   21.8638   20.1789 H     324  UNL324      0.0521
   1944 H           7.6727   20.0048   19.5497 H     324  UNL324      0.2090
   1945 O           9.3870   20.6155   22.8076 O.3   325  UNL325     -0.3982
   1946 C           7.9712   20.6155   22.8076 C.3   325  UNL325      0.0330
   1947 H           7.6059   20.5268   21.7814 H     325  UNL325      0.0521
   1948 H           7.6060   21.5422   23.2568 H     325  UNL325      0.0521
   1949 H           7.6159   19.7645   23.3934 H     325  UNL325      0.0521
   1950 H           9.6727   21.3812   22.2806 H     325  UNL325      0.2090
   1951 O           9.3870   20.6155   25.7300 O.3   326  UNL326     -0.3982
   1952 C           7.9712   20.6155   25.7300 C.3   326  UNL326      0.0330
   1953 H           7.6059   20.5268   24.7038 H     326  UNL326      0.0521
   1954 H           7.6060   21.5422   26.1792 H     326  UNL326      0.0521
   1955 H           7.6159   19.7645   26.3158 H     326  UNL326      0.0521
   1956 H           9.6727   21.3812   25.2030 H     326  UNL326      0.2090
   1957 O           8.7959   21.0582   29.4861 O.3   327  UNL327     -0.3982
   1958 C           8.0046   20.7452   28.3546 C.3   327  UNL327      0.0330
   1959 H           7.8929   19.6609   28.2755 H     327  UNL327      0.0521
   1960 H           8.4824   21.1396   27.4544 H     327  UNL327      0.0521
   1961 H           7.0197   21.2032   28.4720 H     327  UNL327      0.0521
   1962 H           9.6630   20.6387   29.3532 H     327  UNL327      0.2090
   1963 O           8.3588   23.2068    0.2623 O.3   328  UNL328     -0.3982
   1964 C           8.4581   24.0519   -0.8692 C.3   328  UNL328      0.0330
   1965 H           7.5562   24.6640   -0.9482 H     328  UNL328      0.0521
   1966 H           8.5789   23.4443   -1.7693 H     328  UNL328      0.0521
   1967 H           9.3280   24.7023   -0.7517 H     328  UNL328      0.0521
   1968 H           7.5785   22.6420    0.1295 H     328  UNL328      0.2090
   1969 O           9.3870   23.9203    2.1943 O.3   329  UNL329     -0.3982
   1970 C           7.9712   23.9203    2.1943 C.3   329  UNL329      0.0330
   1971 H           7.6059   23.8824    3.2236 H     329  UNL329      0.0521
   1972 H           7.6060   23.0558    1.6347 H     329  UNL329      0.0521
   1973 H           7.6159   24.8368    1.7174 H     329  UNL329      0.0521
   1974 H           9.6727   23.0958    2.6233 H     329  UNL329      0.2090
   1975 O           7.3870   23.9295    5.2358 O.3   330  UNL330     -0.3982
   1976 C           5.9712   23.9295    5.2358 C.3   330  UNL330      0.0330
   1977 H           5.6059   23.1605    5.9210 H     330  UNL330      0.0521
   1978 H           5.6060   23.7348    4.2245 H     330  UNL330      0.0521
   1979 H           5.6159   24.9081    5.5670 H     330  UNL330      0.0521
   1980 H           7.6727   23.0491    4.9378 H     330  UNL330      0.2090
   1981 O           7.3870   23.9295    8.1582 O.3   331  UNL331     -0.3982
   1982 C           5.9712   23.9295    8.1582 C.3   331  UNL331      0.0330
   1983 H           5.6059   23.1605    8.8434 H     331  UNL331      0.0521
   1984 H           5.6060   23.7348    7.1469 H     331  UNL331      0.0521
   1985 H           5.6159   24.9081    8.4894 H     331  UNL331      0.0521
   1986 H           7.6727   23.0491    7.8602 H     331  UNL331      0.2090
   1987 O           9.3870   23.7380   10.8870 O.3   332  UNL332     -0.3982
   1988 C           7.9712   23.7380   10.8870 C.3   332  UNL332      0.0330
   1989 H           7.6059   24.7472   11.0930 H     332  UNL332      0.0521
   1990 H           7.6060   23.0443   11.6482 H     332  UNL332      0.0521
   1991 H           7.6159   23.4177    9.9047 H     332  UNL332      0.0521
   1992 H           9.6727   24.0261   11.7706 H     332  UNL332      0.2090
   1993 O           9.3870   23.9295   14.0029 O.3   333  UNL333     -0.3982
   1994 C           7.9712   23.9295   14.0029 C.3   333  UNL333      0.0330
   1995 H           7.6059   23.1605   14.6881 H     333  UNL333      0.0521
   1996 H           7.6060   23.7348   12.9916 H     333  UNL333      0.0521
   1997 H           7.6159   24.9081   14.3341 H     333  UNL333      0.0521
   1998 H           9.6727   23.0491   13.7049 H     333  UNL333      0.2090
   1999 O           7.9081   23.2477   17.6078 O.3   334  UNL334     -0.3982
   2000 C           8.5587   23.7961   16.4763 C.3   334  UNL334      0.0330
   2001 H           8.9903   24.7656   16.7373 H     334  UNL334      0.0521
   2002 H           7.8391   23.9129   15.6622 H     334  UNL334      0.0521
   2003 H           9.3552   23.1181   16.1610 H     334  UNL334      0.0521
   2004 H           7.2070   23.8708   17.8643 H     334  UNL334      0.2090
   2005 O           7.3870   23.9295   19.8477 O.3   335  UNL335     -0.3982
   2006 C           5.9712   23.9295   19.8477 C.3   335  UNL335      0.0330
   2007 H           5.6059   23.1605   20.5329 H     335  UNL335      0.0521
   2008 H           5.6060   23.7348   18.8364 H     335  UNL335      0.0521
   2009 H           5.6159   24.9081   20.1789 H     335  UNL335      0.0521
   2010 H           7.6727   23.0491   19.5497 H     335  UNL335      0.2090
   2011 O           7.3870   23.9295   22.7701 O.3   336  UNL336     -0.3982
   2012 C           5.9712   23.9295   22.7701 C.3   336  UNL336      0.0330
   2013 H           5.6059   23.1605   23.4552 H     336  UNL336      0.0521
   2014 H           5.6060   23.7348   21.7588 H     336  UNL336      0.0521
   2015 H           5.6159   24.9081   23.1012 H     336  UNL336      0.0521
   2016 H           7.6727   23.0491   22.4720 H     336  UNL336      0.2090
   2017 O           7.3870   23.9295   25.6924 O.3   337  UNL337     -0.3982
   2018 C           5.9712   23.9295   25.6924 C.3   337  UNL337      0.0330
   2019 H           5.6059   23.1605   26.3776 H     337  UNL337      0.0521
   2020 H           5.6060   23.7348   24.6811 H     337  UNL337      0.0521
   2021 H           5.6159   24.9081   26.0236 H     337  UNL337      0.0521
   2022 H           7.6727   23.0491   25.3944 H     337  UNL337      0.2090
   2023 O           7.3870   23.9295   28.6148 O.3   338  UNL338     -0.3982
   2024 C           5.9712   23.9295   28.6148 C.3   338  UNL338      0.0330
   2025 H           5.6059   23.1605   29.3000 H     338  UNL338      0.0521
   2026 H           5.6060   23.7348   27.6035 H     338  UNL338      0.0521
   2027 H           5.6159   24.9081   28.9460 H     338  UNL338      0.0521
   2028 H           7.6727   23.0491   28.3168 H     338  UNL338      0.2090
   2029 O           7.3870   26.9737   -0.6090 O.3   339  UNL339     -0.3982
   2030 C           5.9712   26.9737   -0.6090 C.3   339  UNL339      0.0330
   2031 H           5.6059   26.2047    0.0762 H     339  UNL339      0.0521
   2032 H           5.6060   26.7790   -1.6203 H     339  UNL339      0.0521
   2033 H           5.6159   27.9523   -0.2778 H     339  UNL339      0.0521
   2034 H           7.6727   26.0933   -0.9070 H     339  UNL339      0.2090
   2035 O           9.3870   26.9737    2.3134 O.3   340  UNL340     -0.3982
   2036 C           7.9712   26.9737    2.3134 C.3   340  UNL340      0.0330
   2037 H           7.6059   26.2047    2.9986 H     340  UNL340      0.0521
   2038 H           7.6060   26.7790    1.3021 H     340  UNL340      0.0521
   2039 H           7.6159   27.9523    2.6446 H     340  UNL340      0.0521
   2040 H           9.6727   26.0933    2.0154 H     340  UNL340      0.2090
   2041 O           8.5161   27.4680    6.0433 O.3   341  UNL341     -0.3982
   2042 C           8.0777   26.7387    4.9118 C.3   341  UNL341      0.0330
   2043 H           7.9826   25.6817    5.1728 H     341  UNL341      0.0521
   2044 H           8.7964   26.8607    4.0977 H     341  UNL341      0.0521
   2045 H           7.1048   27.1229    4.5965 H     341  UNL341      0.0521
   2046 H           9.3809   27.1049    6.2998 H     341  UNL341      0.2090
   2047 O           9.3870   26.7040    8.1957 O.3   342  UNL342     -0.3982
   2048 C           7.9712   26.7040    8.1957 C.3   342  UNL342      0.0330
   2049 H           7.6059   26.6153    7.1696 H     342  UNL342      0.0521
   2050 H           7.6060   27.6308    8.6449 H     342  UNL342      0.0521
   2051 H           7.6159   25.8530    8.7815 H     342  UNL342      0.0521
   2052 H           9.6727   27.4697    7.6687 H     342  UNL342      0.2090
   2053 O           9.3870   26.9737   11.0806 O.3   343  UNL343     -0.3982
   2054 C           7.9712   26.9737   11.0806 C.3   343  UNL343      0.0330
   2055 H           7.6059   26.2047   11.7658 H     343  UNL343      0.0521
   2056 H           7.6060   26.7790   10.0693 H     343  UNL343      0.0521
   2057 H           7.6159   27.9523   11.4118 H     343  UNL343      0.0521
   2058 H           9.6727   26.0933   10.7826 H     343  UNL343      0.2090
   2059 O           9.3870   26.9737   14.0029 O.3   344  UNL344     -0.3982
   2060 C           7.9712   26.9737   14.0029 C.3   344  UNL344      0.0330
   2061 H           7.6059   26.2047   14.6881 H     344  UNL344      0.0521
   2062 H           7.6060   26.7790   12.9916 H     344  UNL344      0.0521
   2063 H           7.6159   27.9523   14.3341 H     344  UNL344      0.0521
   2064 H           9.6727   26.0933   13.7049 H     344  UNL344      0.2090
   2065 O           9.3870   26.9737   16.9253 O.3   345  UNL345     -0.3982
   2066 C           7.9712   26.9737   16.9253 C.3   345  UNL345      0.0330
   2067 H           7.6059   26.2047   17.6105 H     345  UNL345      0.0521
   2068 H           7.6060   26.7790   15.9140 H     345  UNL345      0.0521
   2069 H           7.6159   27.9523   17.2565 H     345  UNL345      0.0521
   2070 H           9.6727   26.0933   16.6273 H     345  UNL345      0.2090
   2071 O           7.3870   26.9737   19.8477 O.3   346  UNL346     -0.3982
   2072 C           5.9712   26.9737   19.8477 C.3   346  UNL346      0.0330
   2073 H           5.6059   26.2047   20.5329 H     346  UNL346      0.0521
   2074 H           5.6060   26.7790   18.8364 H     346  UNL346      0.0521
   2075 H           5.6159   27.9523   20.1789 H     346  UNL346      0.0521
   2076 H           7.6727   26.0933   19.5497 H     346  UNL346      0.2090
   2077 O           9.2620   27.0191   22.8591 O.3   347  UNL347     -0.3982
   2078 C           7.8462   27.0191   22.8591 C.3   347  UNL347      0.0330
   2079 H           7.4809   25.9923   22.7786 H     347  UNL347      0.0521
   2080 H           7.4810   27.6141   22.0185 H     347  UNL347      0.0521
   2081 H           7.4909   27.4576   23.7946 H     347  UNL347      0.0521
   2082 H           9.5477   26.6246   22.0175 H     347  UNL347      0.2090
   2083 O           8.7959   27.7891   25.4814 O.3   348  UNL348     -0.3982
   2084 C           8.0046   26.6216   25.6048 C.3   348  UNL348      0.0330
   2085 H           7.8929   26.3660   26.6615 H     348  UNL348      0.0521
   2086 H           8.4824   25.7982   25.0683 H     348  UNL348      0.0521
   2087 H           7.0197   26.8125   25.1723 H     348  UNL348      0.0521
   2088 H           9.6630   27.5893   25.8734 H     348  UNL348      0.2090
   2089 O           9.2620   27.0453   28.4437 O.3   349  UNL349     -0.3982
   2090 C           7.8462   27.0453   28.4437 C.3   349  UNL349      0.0330
   2091 H           7.4809   27.4609   29.3861 H     349  UNL349      0.0521
   2092 H           7.4810   26.0231   28.3181 H     349  UNL349      0.0521
   2093 H           7.4909   27.6613   27.6143 H     349  UNL349      0.0521
   2094 H           9.5477   26.4910   29.1899 H     349  UNL349      0.2090
   2095 O           7.3870   30.0180   -0.6090 O.3   350  UNL350     -0.3982
   2096 C           5.9712   30.0180   -0.6090 C.3   350  UNL350      0.0330
   2097 H           5.6059   29.2490    0.0762 H     350  UNL350      0.0521
   2098 H           5.6060   29.8233   -1.6203 H     350  UNL350      0.0521
   2099 H           5.6159   30.9966   -0.2778 H     350  UNL350      0.0521
   2100 H           7.6727   29.1376   -0.9070 H     350  UNL350      0.2090
   2101 O           7.3870   30.0180    2.3134 O.3   351  UNL351     -0.3982
   2102 C           5.9712   30.0180    2.3134 C.3   351  UNL351      0.0330
   2103 H           5.6059   29.2490    2.9986 H     351  UNL351      0.0521
   2104 H           5.6060   29.8233    1.3021 H     351  UNL351      0.0521
   2105 H           5.6159   30.9966    2.6446 H     351  UNL351      0.0521
   2106 H           7.6727   29.1376    2.0154 H     351  UNL351      0.2090
   2107 O           7.3870   30.0088    5.1167 O.3   352  UNL352     -0.3982
   2108 C           5.9712   30.0088    5.1167 C.3   352  UNL352      0.0330
   2109 H           5.6059   29.9709    6.1460 H     352  UNL352      0.0521
   2110 H           5.6060   29.1443    4.5571 H     352  UNL352      0.0521
   2111 H           5.6159   30.9253    4.6398 H     352  UNL352      0.0521
   2112 H           7.6727   29.1843    5.5457 H     352  UNL352      0.2090
   2113 O           9.3870   30.0088    8.0391 O.3   353  UNL353     -0.3982
   2114 C           7.9712   30.0088    8.0391 C.3   353  UNL353      0.0330
   2115 H           7.6059   29.9709    9.0683 H     353  UNL353      0.0521
   2116 H           7.6060   29.1443    7.4794 H     353  UNL353      0.0521
   2117 H           7.6159   30.9253    7.5622 H     353  UNL353      0.0521
   2118 H           9.6727   29.1843    8.4681 H     353  UNL353      0.2090
   2119 O           7.3870   30.0180   11.0806 O.3   354  UNL354     -0.3982
   2120 C           5.9712   30.0180   11.0806 C.3   354  UNL354      0.0330
   2121 H           5.6059   29.2490   11.7658 H     354  UNL354      0.0521
   2122 H           5.6060   29.8233   10.0693 H     354  UNL354      0.0521
   2123 H           5.6159   30.9966   11.4118 H     354  UNL354      0.0521
   2124 H           7.6727   29.1376   10.7826 H     354  UNL354      0.2090
   2125 O           7.3870   30.0180   14.0029 O.3   355  UNL355     -0.3982
   2126 C           5.9712   30.0180   14.0029 C.3   355  UNL355      0.0330
   2127 H           5.6059   29.2490   14.6881 H     355  UNL355      0.0521
   2128 H           5.6060   29.8233   12.9916 H     355  UNL355      0.0521
   2129 H           5.6159   30.9966   14.3341 H     355  UNL355      0.0521
   2130 H           7.6727   29.1376   13.7049 H     355  UNL355      0.2090
   2131 O           7.3870   30.0180   16.9253 O.3   356  UNL356     -0.3982
   2132 C           5.9712   30.0180   16.9253 C.3   356  UNL356      0.0330
   2133 H           5.6059   29.2490   17.6105 H     356  UNL356      0.0521
   2134 H           5.6060   29.8233   15.9140 H     356  UNL356      0.0521
   2135 H           5.6159   30.9966   17.2565 H     356  UNL356      0.0521
   2136 H           7.6727   29.1376   16.6273 H     356  UNL356      0.2090
   2137 O           7.3870   30.0180   19.8477 O.3   357  UNL357     -0.3982
   2138 C           5.9712   30.0180   19.8477 C.3   357  UNL357      0.0330
   2139 H           5.6059   29.2490   20.5329 H     357  UNL357      0.0521
   2140 H           5.6060   29.8233   18.8364 H     357  UNL357      0.0521
   2141 H           5.6159   30.9966   20.1789 H     357  UNL357      0.0521
   2142 H           7.6727   29.1376   19.5497 H     357  UNL357      0.2090
   2143 O           7.3870   30.0180   22.7701 O.3   358  UNL358     -0.3982
   2144 C           5.9712   30.0180   22.7701 C.3   358  UNL358      0.0330
   2145 H           5.6059   29.2490   23.4552 H     358  UNL358      0.0521
   2146 H           5.6060   29.8233   21.7588 H     358  UNL358      0.0521
   2147 H           5.6159   30.9966   23.1012 H     358  UNL358      0.0521
   2148 H           7.6727   29.1376   22.4720 H     358  UNL358      0.2090
   2149 O           7.3870   30.0180   25.6924 O.3   359  UNL359     -0.3982
   2150 C           5.9712   30.0180   25.6924 C.3   359  UNL359      0.0330
   2151 H           5.6059   29.2490   26.3776 H     359  UNL359      0.0521
   2152 H           5.6060   29.8233   24.6811 H     359  UNL359      0.0521
   2153 H           5.6159   30.9966   26.0236 H     359  UNL359      0.0521
   2154 H           7.6727   29.1376   25.3944 H     359  UNL359      0.2090
   2155 O           9.3870   29.8716   28.7183 O.3   360  UNL360     -0.3982
   2156 C           7.9712   29.8716   28.7183 C.3   360  UNL360      0.0330
   2157 H           7.6059   28.9832   28.1971 H     360  UNL360      0.0521
   2158 H           7.6060   30.7741   28.2221 H     360  UNL360      0.0521
   2159 H           7.6159   29.8573   29.7513 H     360  UNL360      0.0521
   2160 H           9.6727   29.8845   27.7889 H     360  UNL360      0.2090
   2161 O          12.2727    0.2366   -1.3537 O.3   361  UNL361     -0.3982
   2162 C          11.4815   -0.6347   -0.5668 C.3   361  UNL361      0.0330
   2163 H          11.3698   -0.2195    0.4379 H     361  UNL361      0.0521
   2164 H          11.9592   -1.6161   -0.5160 H     361  UNL361      0.0521
   2165 H          10.4965   -0.7349   -1.0289 H     361  UNL361      0.0521
   2166 H          13.1398    0.3058   -0.9191 H     361  UNL361      0.2090
   2167 O          12.5045   -0.7279    1.4628 O.3   362  UNL362     -0.3982
   2168 C          11.7133   -0.4148    2.5944 C.3   362  UNL362      0.0330
   2169 H          11.4166   -1.3376    3.0993 H     362  UNL362      0.0521
   2170 H          10.8273    0.1410    2.2780 H     362  UNL362      0.0521
   2171 H          12.3010    0.2002    3.2798 H     362  UNL362      0.0521
   2172 H          11.9568   -1.2737    0.8733 H     362  UNL362      0.2090
   2173 O          12.7388   -0.5041    5.3249 O.3   363  UNL363     -0.3982
   2174 C          11.3230   -0.5041    5.3249 C.3   363  UNL363      0.0330
   2175 H          10.9577   -1.5310    5.2443 H     363  UNL363      0.0521
   2176 H          10.9578    0.0908    4.4842 H     363  UNL363      0.0521
   2177 H          10.9677   -0.0657    6.2603 H     363  UNL363      0.0521
   2178 H          13.0245   -0.8986    4.4833 H     363  UNL363      0.2090
   2179 O          12.2727   -0.2515    9.0295 O.3   364  UNL364     -0.3982
   2180 C          11.4815   -0.5646    7.8979 C.3   364  UNL364      0.0330
   2181 H          11.3698   -1.6488    7.8189 H     364  UNL364      0.0521
   2182 H          11.9592   -0.1702    6.9978 H     364  UNL364      0.0521
   2183 H          10.4965   -0.1066    8.0154 H     364  UNL364      0.0521
   2184 H          13.1398   -0.6710    8.8966 H     364  UNL364      0.2090
   2185 O          12.8638   -0.4245   11.0806 O.3   365  UNL365     -0.3982
   2186 C          11.4480   -0.4245   11.0806 C.3   365  UNL365      0.0330
   2187 H          11.0827   -1.1935   11.7658 H     365  UNL365      0.0521
   2188 H          11.0828   -0.6192   10.0693 H     365  UNL365      0.0521
   2189 H          11.0927    0.5541   11.4118 H     365  UNL365      0.0521
   2190 H          13.1495   -1.3049   10.7826 H     365  UNL365      0.2090
   2191 O          10.8638   -0.4245   14.0029 O.3   366  UNL366     -0.3982
   2192 C           9.4480   -0.4245   14.0029 C.3   366  UNL366      0.0330
   2193 H           9.0827   -1.1935   14.6881 H     366  UNL366      0.0521
   2194 H           9.0828   -0.6192   12.9916 H     366  UNL366      0.0521
   2195 H           9.0927    0.5541   14.3341 H     366  UNL366      0.0521
   2196 H          11.1495   -1.3049   13.7049 H     366  UNL366      0.2090
   2197 O          12.5045   -0.1591   17.5838 O.3   367  UNL367     -0.3982
   2198 C          11.7133   -0.8210   16.6142 C.3   367  UNL367      0.0330
   2199 H          11.4166   -0.1110   15.8382 H     367  UNL367      0.0521
   2200 H          10.8273   -1.2448   17.0932 H     367  UNL367      0.0521
   2201 H          12.3010   -1.6246   16.1643 H     367  UNL367      0.0521
   2202 H          11.9568    0.5479   17.9653 H     367  UNL367      0.2090
   2203 O          12.8638   -0.5041   19.9367 O.3   368  UNL368     -0.3982
   2204 C          11.4480   -0.5041   19.9367 C.3   368  UNL368      0.0330
   2205 H          11.0827   -1.5310   19.8562 H     368  UNL368      0.0521
   2206 H          11.0828    0.0908   19.0961 H     368  UNL368      0.0521
   2207 H          11.0927   -0.0657   20.8722 H     368  UNL368      0.0521
   2208 H          13.1495   -0.8986   19.0951 H     368  UNL368      0.2090
   2209 O          10.8498   -0.1050   23.1586 O.3   369  UNL369     -0.3982
   2210 C          12.0358   -0.4102   22.4481 C.3   369  UNL369      0.0330
   2211 H          12.0114   -1.4549   22.1281 H     369  UNL369      0.0521
   2212 H          12.9019   -0.2350   23.0909 H     369  UNL369      0.0521
   2213 H          12.1001    0.2362   21.5697 H     369  UNL369      0.0521
   2214 H          10.8205   -0.6939   23.9319 H     369  UNL369      0.2090
   2215 O          12.5045    0.1961   25.3554 O.3   370  UNL370     -0.3982
   2216 C          11.7133   -0.8689   25.8495 C.3   370  UNL370      0.0330
   2217 H          11.4166   -1.5181   25.0219 H     370  UNL370      0.0521
   2218 H          10.8273   -0.4658   26.3460 H     370  UNL370      0.0521
   2219 H          12.3010   -1.4443   26.5685 H     370  UNL370      0.0521
   2220 H          11.9568    0.6883   24.7203 H     370  UNL370      0.2090
   2221 O          12.8638   -0.6745   28.4564 O.3   371  UNL371     -0.3982
   2222 C          11.4480   -0.6745   28.4564 C.3   371  UNL371      0.0330
   2223 H          11.0827    0.3232   28.2008 H     371  UNL371      0.0521
   2224 H          11.0828   -0.9659   29.4442 H     371  UNL371      0.0521
   2225 H          11.0927   -1.3918   27.7128 H     371  UNL371      0.0521
   2226 H          13.1495   -0.0292   29.1253 H     371  UNL371      0.2090
   2227 O          10.8638    2.6197   -0.6090 O.3   372  UNL372     -0.3982
   2228 C           9.4480    2.6197   -0.6090 C.3   372  UNL372      0.0330
   2229 H           9.0827    1.8507    0.0762 H     372  UNL372      0.0521
   2230 H           9.0828    2.4250   -1.6203 H     372  UNL372      0.0521
   2231 H           9.0927    3.5983   -0.2778 H     372  UNL372      0.0521
   2232 H          11.1495    1.7393   -0.9070 H     372  UNL372      0.2090
   2233 O          10.8638    2.6197    2.3134 O.3   373  UNL373     -0.3982
   2234 C           9.4480    2.6197    2.3134 C.3   373  UNL373      0.0330
   2235 H           9.0827    1.8507    2.9986 H     373  UNL373      0.0521
   2236 H           9.0828    2.4250    1.3021 H     373  UNL373      0.0521
   2237 H           9.0927    3.5983    2.6446 H     373  UNL373      0.0521
   2238 H          11.1495    1.7393    2.0154 H     373  UNL373      0.2090
   2239 O          10.8638    2.6197    5.2358 O.3   374  UNL374     -0.3982
   2240 C           9.4480    2.6197    5.2358 C.3   374  UNL374      0.0330
   2241 H           9.0827    1.8507    5.9210 H     374  UNL374      0.0521
   2242 H           9.0828    2.4250    4.2245 H     374  UNL374      0.0521
   2243 H           9.0927    3.5983    5.5670 H     374  UNL374      0.0521
   2244 H          11.1495    1.7393    4.9378 H     374  UNL374      0.2090
   2245 O          10.8638    2.6197    8.1582 O.3   375  UNL375     -0.3982
   2246 C           9.4480    2.6197    8.1582 C.3   375  UNL375      0.0330
   2247 H           9.0827    1.8507    8.8434 H     375  UNL375      0.0521
   2248 H           9.0828    2.4250    7.1469 H     375  UNL375      0.0521
   2249 H           9.0927    3.5983    8.4894 H     375  UNL375      0.0521
   2250 H          11.1495    1.7393    7.8602 H     375  UNL375      0.2090
   2251 O          12.8638    2.6197   11.0806 O.3   376  UNL376     -0.3982
   2252 C          11.4480    2.6197   11.0806 C.3   376  UNL376      0.0330
   2253 H          11.0827    1.8507   11.7658 H     376  UNL376      0.0521
   2254 H          11.0828    2.4250   10.0693 H     376  UNL376      0.0521
   2255 H          11.0927    3.5983   11.4118 H     376  UNL376      0.0521
   2256 H          13.1495    1.7393   10.7826 H     376  UNL376      0.2090
   2257 O          10.8638    2.6197   14.0029 O.3   377  UNL377     -0.3982
   2258 C           9.4480    2.6197   14.0029 C.3   377  UNL377      0.0330
   2259 H           9.0827    1.8507   14.6881 H     377  UNL377      0.0521
   2260 H           9.0828    2.4250   12.9916 H     377  UNL377      0.0521
   2261 H           9.0927    3.5983   14.3341 H     377  UNL377      0.0521
   2262 H          11.1495    1.7393   13.7049 H     377  UNL377      0.2090
   2263 O          10.8638    2.6197   16.9253 O.3   378  UNL378     -0.3982
   2264 C           9.4480    2.6197   16.9253 C.3   378  UNL378      0.0330
   2265 H           9.0827    1.8507   17.6105 H     378  UNL378      0.0521
   2266 H           9.0828    2.4250   15.9140 H     378  UNL378      0.0521
   2267 H           9.0927    3.5983   17.2565 H     378  UNL378      0.0521
   2268 H          11.1495    1.7393   16.6273 H     378  UNL378      0.2090
   2269 O          10.8638    2.6197   19.8477 O.3   379  UNL379     -0.3982
   2270 C           9.4480    2.6197   19.8477 C.3   379  UNL379      0.0330
   2271 H           9.0827    1.8507   20.5329 H     379  UNL379      0.0521
   2272 H           9.0828    2.4250   18.8364 H     379  UNL379      0.0521
   2273 H           9.0927    3.5983   20.1789 H     379  UNL379      0.0521
   2274 H          11.1495    1.7393   19.5497 H     379  UNL379      0.2090
   2275 O          10.8638    2.6197   22.7701 O.3   380  UNL380     -0.3982
   2276 C           9.4480    2.6197   22.7701 C.3   380  UNL380      0.0330
   2277 H           9.0827    1.8507   23.4552 H     380  UNL380      0.0521
   2278 H           9.0828    2.4250   21.7588 H     380  UNL380      0.0521
   2279 H           9.0927    3.5983   23.1012 H     380  UNL380      0.0521
   2280 H          11.1495    1.7393   22.4720 H     380  UNL380      0.2090
   2281 O          10.8638    2.6197   25.6924 O.3   381  UNL381     -0.3982
   2282 C           9.4480    2.6197   25.6924 C.3   381  UNL381      0.0330
   2283 H           9.0827    1.8507   26.3776 H     381  UNL381      0.0521
   2284 H           9.0828    2.4250   24.6811 H     381  UNL381      0.0521
   2285 H           9.0927    3.5983   26.0236 H     381  UNL381      0.0521
   2286 H          11.1495    1.7393   25.3944 H     381  UNL381      0.2090
   2287 O          10.8638    2.6197   28.6148 O.3   382  UNL382     -0.3982
   2288 C           9.4480    2.6197   28.6148 C.3   382  UNL382      0.0330
   2289 H           9.0827    1.8507   29.3000 H     382  UNL382      0.0521
   2290 H           9.0828    2.4250   27.6035 H     382  UNL382      0.0521
   2291 H           9.0927    3.5983   28.9460 H     382  UNL382      0.0521
   2292 H          11.1495    1.7393   28.3168 H     382  UNL382      0.2090
   2293 O          10.8638    5.6640   -0.6090 O.3   383  UNL383     -0.3982
   2294 C           9.4480    5.6640   -0.6090 C.3   383  UNL383      0.0330
   2295 H           9.0827    4.8950    0.0762 H     383  UNL383      0.0521
   2296 H           9.0828    5.4693   -1.6203 H     383  UNL383      0.0521
   2297 H           9.0927    6.6426   -0.2778 H     383  UNL383      0.0521
   2298 H          11.1495    4.7836   -0.9070 H     383  UNL383      0.2090
   2299 O          10.8638    5.6640    2.3134 O.3   384  UNL384     -0.3982
   2300 C           9.4480    5.6640    2.3134 C.3   384  UNL384      0.0330
   2301 H           9.0827    4.8950    2.9986 H     384  UNL384      0.0521
   2302 H           9.0828    5.4693    1.3021 H     384  UNL384      0.0521
   2303 H           9.0927    6.6426    2.6446 H     384  UNL384      0.0521
   2304 H          11.1495    4.7836    2.0154 H     384  UNL384      0.2090
   2305 O          10.8638    5.6640    5.2358 O.3   385  UNL385     -0.3982
   2306 C           9.4480    5.6640    5.2358 C.3   385  UNL385      0.0330
   2307 H           9.0827    4.8950    5.9210 H     385  UNL385      0.0521
   2308 H           9.0828    5.4693    4.2245 H     385  UNL385      0.0521
   2309 H           9.0927    6.6426    5.5670 H     385  UNL385      0.0521
   2310 H          11.1495    4.7836    4.9378 H     385  UNL385      0.2090
   2311 O          11.2240    5.3766    8.9045 O.3   386  UNL386     -0.3982
   2312 C          12.0740    5.4171    7.7729 C.3   386  UNL386      0.0330
   2313 H          12.5301    6.4071    7.6939 H     386  UNL386      0.0521
   2314 H          11.4944    5.1983    6.8728 H     386  UNL386      0.0521
   2315 H          12.8580    4.6654    7.8904 H     386  UNL386      0.0521
   2316 H          10.5390    6.0538    8.7716 H     386  UNL386      0.2090
   2317 O          10.8638    5.6640   11.0806 O.3   387  UNL387     -0.3982
   2318 C           9.4480    5.6640   11.0806 C.3   387  UNL387      0.0330
   2319 H           9.0827    4.8950   11.7658 H     387  UNL387      0.0521
   2320 H           9.0828    5.4693   10.0693 H     387  UNL387      0.0521
   2321 H           9.0927    6.6426   11.4118 H     387  UNL387      0.0521
   2322 H          11.1495    4.7836   10.7826 H     387  UNL387      0.2090
   2323 O          11.9774    4.5176   13.4109 O.3   388  UNL388     -0.3982
   2324 C          12.0521    5.7727   14.0617 C.3   388  UNL388      0.0330
   2325 H          11.1328    5.9466   14.6265 H     388  UNL388      0.0521
   2326 H          12.1906    6.5617   13.3186 H     388  UNL388      0.0521
   2327 H          12.9028    5.7674   14.7472 H     388  UNL388      0.0521
   2328 H          11.2138    4.5524   12.8098 H     388  UNL388      0.2090
   2329 O          11.6783    6.0512   17.7966 O.3   389  UNL389     -0.3982
   2330 C          11.8574    5.2194   16.6651 C.3   389  UNL389      0.0330
   2331 H          12.9087    4.9316   16.5860 H     389  UNL389      0.0521
   2332 H          11.5467    5.7553   15.7649 H     389  UNL389      0.0521
   2333 H          11.2443    4.3228   16.7825 H     389  UNL389      0.0521
   2334 H          12.2341    6.8379   17.6637 H     389  UNL389      0.2090
   2335 O          12.7388    5.5193   19.8852 O.3   390  UNL390     -0.3982
   2336 C          11.3230    5.5193   19.8852 C.3   390  UNL390      0.0330
   2337 H          10.9577    5.4305   18.8591 H     390  UNL390      0.0521
   2338 H          10.9578    6.4460   20.3344 H     390  UNL390      0.0521
   2339 H          10.9677    4.6683   20.4710 H     390  UNL390      0.0521
   2340 H          13.0245    6.2849   19.3582 H     390  UNL390      0.2090
   2341 O          11.5533    6.0512   23.6414 O.3   391  UNL391     -0.3982
   2342 C          11.7324    5.2194   22.5098 C.3   391  UNL391      0.0330
   2343 H          12.7837    4.9316   22.4308 H     391  UNL391      0.0521
   2344 H          11.4217    5.7553   21.6097 H     391  UNL391      0.0521
   2345 H          11.1193    4.3228   22.6273 H     391  UNL391      0.0521
   2346 H          12.1091    6.8379   23.5085 H     391  UNL391      0.2090
   2347 O          12.7388    5.4140   25.5340 O.3   392  UNL392     -0.3982
   2348 C          11.3230    5.4140   25.5340 C.3   392  UNL392      0.0330
   2349 H          10.9577    6.4117   25.2784 H     392  UNL392      0.0521
   2350 H          10.9578    5.1226   26.5218 H     392  UNL392      0.0521
   2351 H          10.9677    4.6967   24.7905 H     392  UNL392      0.0521
   2352 H          13.0245    6.0593   26.2030 H     392  UNL392      0.2090
   2353 O          11.8356    4.9413   29.4861 O.3   393  UNL393     -0.3982
   2354 C          11.9349    5.7864   28.3546 C.3   393  UNL393      0.0330
   2355 H          11.0330    6.3985   28.2755 H     393  UNL393      0.0521
   2356 H          12.0558    5.1788   27.4544 H     393  UNL393      0.0521
   2357 H          12.8049    6.4368   28.4720 H     393  UNL393      0.0521
   2358 H          11.0553    4.3765   29.3532 H     393  UNL393      0.2090
   2359 O          10.8638    8.7082   -0.6090 O.3   394  UNL394     -0.3982
   2360 C           9.4480    8.7082   -0.6090 C.3   394  UNL394      0.0330
   2361 H           9.0827    7.9392    0.0762 H     394  UNL394      0.0521
   2362 H           9.0828    8.5135   -1.6203 H     394  UNL394      0.0521
   2363 H           9.0927    9.6868   -0.2778 H     394  UNL394      0.0521
   2364 H          11.1495    7.8278   -0.9070 H     394  UNL394      0.2090
   2365 O          10.8638    8.7082    2.3134 O.3   395  UNL395     -0.3982
   2366 C           9.4480    8.7082    2.3134 C.3   395  UNL395      0.0330
   2367 H           9.0827    7.9392    2.9986 H     395  UNL395      0.0521
   2368 H           9.0828    8.5135    1.3021 H     395  UNL395      0.0521
   2369 H           9.0927    9.6868    2.6446 H     395  UNL395      0.0521
   2370 H          11.1495    7.8278    2.0154 H     395  UNL395      0.2090
   2371 O          10.8638    8.7082    5.2358 O.3   396  UNL396     -0.3982
   2372 C           9.4480    8.7082    5.2358 C.3   396  UNL396      0.0330
   2373 H           9.0827    7.9392    5.9210 H     396  UNL396      0.0521
   2374 H           9.0828    8.5135    4.2245 H     396  UNL396      0.0521
   2375 H           9.0927    9.6868    5.5670 H     396  UNL396      0.0521
   2376 H          11.1495    7.8278    4.9378 H     396  UNL396      0.2090
   2377 O          10.8638    8.7082    8.1582 O.3   397  UNL397     -0.3982
   2378 C           9.4480    8.7082    8.1582 C.3   397  UNL397      0.0330
   2379 H           9.0827    7.9392    8.8434 H     397  UNL397      0.0521
   2380 H           9.0828    8.5135    7.1469 H     397  UNL397      0.0521
   2381 H           9.0927    9.6868    8.4894 H     397  UNL397      0.0521
   2382 H          11.1495    7.8278    7.8602 H     397  UNL397      0.2090
   2383 O          10.8638    8.7082   11.0806 O.3   398  UNL398     -0.3982
   2384 C           9.4480    8.7082   11.0806 C.3   398  UNL398      0.0330
   2385 H           9.0827    7.9392   11.7658 H     398  UNL398      0.0521
   2386 H           9.0828    8.5135   10.0693 H     398  UNL398      0.0521
   2387 H           9.0927    9.6868   11.4118 H     398  UNL398      0.0521
   2388 H          11.1495    7.8278   10.7826 H     398  UNL398      0.2090
   2389 O          10.8638    8.7082   14.0029 O.3   399  UNL399     -0.3982
   2390 C           9.4480    8.7082   14.0029 C.3   399  UNL399      0.0330
   2391 H           9.0827    7.9392   14.6881 H     399  UNL399      0.0521
   2392 H           9.0828    8.5135   12.9916 H     399  UNL399      0.0521
   2393 H           9.0927    9.6868   14.3341 H     399  UNL399      0.0521
   2394 H          11.1495    7.8278   13.7049 H     399  UNL399      0.2090
   2395 O          10.8638    8.7082   16.9253 O.3   400  UNL400     -0.3982
   2396 C           9.4480    8.7082   16.9253 C.3   400  UNL400      0.0330
   2397 H           9.0827    7.9392   17.6105 H     400  UNL400      0.0521
   2398 H           9.0828    8.5135   15.9140 H     400  UNL400      0.0521
   2399 H           9.0927    9.6868   17.2565 H     400  UNL400      0.0521
   2400 H          11.1495    7.8278   16.6273 H     400  UNL400      0.2090
   2401 O          10.8638    8.7082   19.8477 O.3   401  UNL401     -0.3982
   2402 C           9.4480    8.7082   19.8477 C.3   401  UNL401      0.0330
   2403 H           9.0827    7.9392   20.5329 H     401  UNL401      0.0521
   2404 H           9.0828    8.5135   18.8364 H     401  UNL401      0.0521
   2405 H           9.0927    9.6868   20.1789 H     401  UNL401      0.0521
   2406 H          11.1495    7.8278   19.5497 H     401  UNL401      0.2090
   2407 O          10.8638    8.7082   22.7701 O.3   402  UNL402     -0.3982
   2408 C           9.4480    8.7082   22.7701 C.3   402  UNL402      0.0330
   2409 H           9.0827    7.9392   23.4552 H     402  UNL402      0.0521
   2410 H           9.0828    8.5135   21.7588 H     402  UNL402      0.0521
   2411 H           9.0927    9.6868   23.1012 H     402  UNL402      0.0521
   2412 H          11.1495    7.8278   22.4720 H     402  UNL402      0.2090
   2413 O          10.8638    8.7082   25.6924 O.3   403  UNL403     -0.3982
   2414 C           9.4480    8.7082   25.6924 C.3   403  UNL403      0.0330
   2415 H           9.0827    7.9392   26.3776 H     403  UNL403      0.0521
   2416 H           9.0828    8.5135   24.6811 H     403  UNL403      0.0521
   2417 H           9.0927    9.6868   26.0236 H     403  UNL403      0.0521
   2418 H          11.1495    7.8278   25.3944 H     403  UNL403      0.2090
   2419 O          10.8638    8.7082   28.6148 O.3   404  UNL404     -0.3982
   2420 C           9.4480    8.7082   28.6148 C.3   404  UNL404      0.0330
   2421 H           9.0827    7.9392   29.3000 H     404  UNL404      0.0521
   2422 H           9.0828    8.5135   27.6035 H     404  UNL404      0.0521
   2423 H           9.0927    9.6868   28.9460 H     404  UNL404      0.0521
   2424 H          11.1495    7.8278   28.3168 H     404  UNL404      0.2090
   2425 O           9.0264   12.2599    0.3134 O.3   405  UNL405     -0.3982
   2426 C           9.8737   11.1256    0.3134 C.3   405  UNL405      0.0330
   2427 H          10.7084   11.2932    0.9986 H     405  UNL405      0.0521
   2428 H          10.2482   10.9496   -0.6979 H     405  UNL405      0.0521
   2429 H           9.3023   10.2553    0.6446 H     405  UNL405      0.0521
   2430 H           9.5607   13.0157    0.0154 H     405  UNL405      0.2090
   2431 O          10.8638   11.7525    3.2358 O.3   406  UNL406     -0.3982
   2432 C           9.4480   11.7525    3.2358 C.3   406  UNL406      0.0330
   2433 H           9.0827   10.9835    3.9210 H     406  UNL406      0.0521
   2434 H           9.0828   11.5578    2.2245 H     406  UNL406      0.0521
   2435 H           9.0927   12.7311    3.5670 H     406  UNL406      0.0521
   2436 H          11.1495   10.8721    2.9378 H     406  UNL406      0.2090
   2437 O          10.8638   11.7525    6.1582 O.3   407  UNL407     -0.3982
   2438 C           9.4480   11.7525    6.1582 C.3   407  UNL407      0.0330
   2439 H           9.0827   10.9835    6.8434 H     407  UNL407      0.0521
   2440 H           9.0828   11.5578    5.1469 H     407  UNL407      0.0521
   2441 H           9.0927   12.7311    6.4894 H     407  UNL407      0.0521
   2442 H          11.1495   10.8721    5.8602 H     407  UNL407      0.2090
   2443 O          10.8638   11.7525    9.0806 O.3   408  UNL408     -0.3982
   2444 C           9.4480   11.7525    9.0806 C.3   408  UNL408      0.0330
   2445 H           9.0827   10.9835    9.7658 H     408  UNL408      0.0521
   2446 H           9.0828   11.5578    8.0693 H     408  UNL408      0.0521
   2447 H           9.0927   12.7311    9.4118 H     408  UNL408      0.0521
   2448 H          11.1495   10.8721    8.7826 H     408  UNL408      0.2090
   2449 O          10.8638   11.7525   12.0029 O.3   409  UNL409     -0.3982
   2450 C           9.4480   11.7525   12.0029 C.3   409  UNL409      0.0330
   2451 H           9.0827   10.9835   12.6881 H     409  UNL409      0.0521
   2452 H           9.0828   11.5578   10.9916 H     409  UNL409      0.0521
   2453 H           9.0927   12.7311   12.3341 H     409  UNL409      0.0521
   2454 H          11.1495   10.8721   11.7049 H     409  UNL409      0.2090
   2455 O          10.8638   11.7525   14.9253 O.3   410  UNL410     -0.3982
   2456 C           9.4480   11.7525   14.9253 C.3   410  UNL410      0.0330
   2457 H           9.0827   10.9835   15.6105 H     410  UNL410      0.0521
   2458 H           9.0828   11.5578   13.9140 H     410  UNL410      0.0521
   2459 H           9.0927   12.7311   15.2565 H     410  UNL410      0.0521
   2460 H          11.1495   10.8721   14.6273 H     410  UNL410      0.2090
   2461 O          10.8638   11.7525   17.8477 O.3   411  UNL411     -0.3982
   2462 C           9.4480   11.7525   17.8477 C.3   411  UNL411      0.0330
   2463 H           9.0827   10.9835   18.5329 H     411  UNL411      0.0521
   2464 H           9.0828   11.5578   16.8364 H     411  UNL411      0.0521
   2465 H           9.0927   12.7311   18.1789 H     411  UNL411      0.0521
   2466 H          11.1495   10.8721   17.5497 H     411  UNL411      0.2090
   2467 O          11.8029   10.8567   21.5077 O.3   412  UNL412     -0.3982
   2468 C          11.9795   11.8378   20.5023 C.3   412  UNL412      0.0330
   2469 H          11.4551   12.7528   20.7887 H     412  UNL412      0.0521
   2470 H          11.5884   11.4628   19.5534 H     412  UNL412      0.0521
   2471 H          13.0460   12.0496   20.3961 H     412  UNL412      0.0521
   2472 H          10.8476   10.6896   21.5791 H     412  UNL412      0.2090
   2473 O          12.8638   11.4828   25.7300 O.3   413  UNL413     -0.3982
   2474 C          11.4480   11.4828   25.7300 C.3   413  UNL413      0.0330
   2475 H          11.0827   11.3940   24.7038 H     413  UNL413      0.0521
   2476 H          11.0828   12.4095   26.1792 H     413  UNL413      0.0521
   2477 H          11.0927   10.6318   26.3158 H     413  UNL413      0.0521
   2478 H          13.1495   12.2484   25.2030 H     413  UNL413      0.2090
   2479 O          12.2727   11.9255   29.4861 O.3   414  UNL414     -0.3982
   2480 C          11.4815   11.6124   28.3546 C.3   414  UNL414      0.0330
   2481 H          11.3698   10.5282   28.2755 H     414  UNL414      0.0521
   2482 H          11.9592   12.0068   27.4544 H     414  UNL414      0.0521
   2483 H          10.4965   12.0704   28.4720 H     414  UNL414      0.0521
   2484 H          13.1398   11.5060   29.3532 H     414  UNL414      0.2090
   2485 O          10.8638   14.7967   -0.6090 O.3   415  UNL415     -0.3982
   2486 C           9.4480   14.7967   -0.6090 C.3   415  UNL415      0.0330
   2487 H           9.0827   14.0277    0.0762 H     415  UNL415      0.0521
   2488 H           9.0828   14.6020   -1.6203 H     415  UNL415      0.0521
   2489 H           9.0927   15.7753   -0.2778 H     415  UNL415      0.0521
   2490 H          11.1495   13.9163   -0.9070 H     415  UNL415      0.2090
   2491 O          10.8638   14.7967    2.3134 O.3   416  UNL416     -0.3982
   2492 C           9.4480   14.7967    2.3134 C.3   416  UNL416      0.0330
   2493 H           9.0827   14.0277    2.9986 H     416  UNL416      0.0521
   2494 H           9.0828   14.6020    1.3021 H     416  UNL416      0.0521
   2495 H           9.0927   15.7753    2.6446 H     416  UNL416      0.0521
   2496 H          11.1495   13.9163    2.0154 H     416  UNL416      0.2090
   2497 O          10.8638   14.7967    5.2358 O.3   417  UNL417     -0.3982
   2498 C           9.4480   14.7967    5.2358 C.3   417  UNL417      0.0330
   2499 H           9.0827   14.0277    5.9210 H     417  UNL417      0.0521
   2500 H           9.0828   14.6020    4.2245 H     417  UNL417      0.0521
   2501 H           9.0927   15.7753    5.5670 H     417  UNL417      0.0521
   2502 H          11.1495   13.9163    4.9378 H     417  UNL417      0.2090
   2503 O          10.8638   14.7967    8.1582 O.3   418  UNL418     -0.3982
   2504 C           9.4480   14.7967    8.1582 C.3   418  UNL418      0.0330
   2505 H           9.0827   14.0277    8.8434 H     418  UNL418      0.0521
   2506 H           9.0828   14.6020    7.1469 H     418  UNL418      0.0521
   2507 H           9.0927   15.7753    8.4894 H     418  UNL418      0.0521
   2508 H          11.1495   13.9163    7.8602 H     418  UNL418      0.2090
   2509 O          10.8638   14.7967   11.0806 O.3   419  UNL419     -0.3982
   2510 C           9.4480   14.7967   11.0806 C.3   419  UNL419      0.0330
   2511 H           9.0827   14.0277   11.7658 H     419  UNL419      0.0521
   2512 H           9.0828   14.6020   10.0693 H     419  UNL419      0.0521
   2513 H           9.0927   15.7753   11.4118 H     419  UNL419      0.0521
   2514 H          11.1495   13.9163   10.7826 H     419  UNL419      0.2090
   2515 O          10.8638   14.7967   14.0029 O.3   420  UNL420     -0.3982
   2516 C           9.4480   14.7967   14.0029 C.3   420  UNL420      0.0330
   2517 H           9.0827   14.0277   14.6881 H     420  UNL420      0.0521
   2518 H           9.0828   14.6020   12.9916 H     420  UNL420      0.0521
   2519 H           9.0927   15.7753   14.3341 H     420  UNL420      0.0521
   2520 H          11.1495   13.9163   13.7049 H     420  UNL420      0.2090
   2521 O          10.8638   14.7967   16.9253 O.3   421  UNL421     -0.3982
   2522 C           9.4480   14.7967   16.9253 C.3   421  UNL421      0.0330
   2523 H           9.0827   14.0277   17.6105 H     421  UNL421      0.0521
   2524 H           9.0828   14.6020   15.9140 H     421  UNL421      0.0521
   2525 H           9.0927   15.7753   17.2565 H     421  UNL421      0.0521
   2526 H          11.1495   13.9163   16.6273 H     421  UNL421      0.2090
   2527 O          10.8638   14.7967   19.8477 O.3   422  UNL422     -0.3982
   2528 C           9.4480   14.7967   19.8477 C.3   422  UNL422      0.0330
   2529 H           9.0827   14.0277   20.5329 H     422  UNL422      0.0521
   2530 H           9.0828   14.6020   18.8364 H     422  UNL422      0.0521
   2531 H           9.0927   15.7753   20.1789 H     422  UNL422      0.0521
   2532 H          11.1495   13.9163   19.5497 H     422  UNL422      0.2090
   2533 O          10.8638   14.7967   22.7701 O.3   423  UNL423     -0.3982
   2534 C           9.4480   14.7967   22.7701 C.3   423  UNL423      0.0330
   2535 H           9.0827   14.0277   23.4552 H     423  UNL423      0.0521
   2536 H           9.0828   14.6020   21.7588 H     423  UNL423      0.0521
   2537 H           9.0927   15.7753   23.1012 H     423  UNL423      0.0521
   2538 H          11.1495   13.9163   22.4720 H     423  UNL423      0.2090
   2539 O          10.8638   14.7967   25.6924 O.3   424  UNL424     -0.3982
   2540 C           9.4480   14.7967   25.6924 C.3   424  UNL424      0.0330
   2541 H           9.0827   14.0277   26.3776 H     424  UNL424      0.0521
   2542 H           9.0828   14.6020   24.6811 H     424  UNL424      0.0521
   2543 H           9.0927   15.7753   26.0236 H     424  UNL424      0.0521
   2544 H          11.1495   13.9163   25.3944 H     424  UNL424      0.2090
   2545 O          10.8638   14.7967   28.6148 O.3   425  UNL425     -0.3982
   2546 C           9.4480   14.7967   28.6148 C.3   425  UNL425      0.0330
   2547 H           9.0827   14.0277   29.3000 H     425  UNL425      0.0521
   2548 H           9.0828   14.6020   27.6035 H     425  UNL425      0.0521
   2549 H           9.0927   15.7753   28.9460 H     425  UNL425      0.0521
   2550 H          11.1495   13.9163   28.3168 H     425  UNL425      0.2090
   2551 O          10.8638   17.8410   -0.6090 O.3   426  UNL426     -0.3982
   2552 C           9.4480   17.8410   -0.6090 C.3   426  UNL426      0.0330
   2553 H           9.0827   17.0720    0.0762 H     426  UNL426      0.0521
   2554 H           9.0828   17.6463   -1.6203 H     426  UNL426      0.0521
   2555 H           9.0927   18.8196   -0.2778 H     426  UNL426      0.0521
   2556 H          11.1495   16.9606   -0.9070 H     426  UNL426      0.2090
   2557 O          10.8638   17.8410    2.3134 O.3   427  UNL427     -0.3982
   2558 C           9.4480   17.8410    2.3134 C.3   427  UNL427      0.0330
   2559 H           9.0827   17.0720    2.9986 H     427  UNL427      0.0521
   2560 H           9.0828   17.6463    1.3021 H     427  UNL427      0.0521
   2561 H           9.0927   18.8196    2.6446 H     427  UNL427      0.0521
   2562 H          11.1495   16.9606    2.0154 H     427  UNL427      0.2090
   2563 O          10.8638   17.8410    5.2358 O.3   428  UNL428     -0.3982
   2564 C           9.4480   17.8410    5.2358 C.3   428  UNL428      0.0330
   2565 H           9.0827   17.0720    5.9210 H     428  UNL428      0.0521
   2566 H           9.0828   17.6463    4.2245 H     428  UNL428      0.0521
   2567 H           9.0927   18.8196    5.5670 H     428  UNL428      0.0521
   2568 H          11.1495   16.9606    4.9378 H     428  UNL428      0.2090
   2569 O          10.8638   17.8410    8.1582 O.3   429  UNL429     -0.3982
   2570 C           9.4480   17.8410    8.1582 C.3   429  UNL429      0.0330
   2571 H           9.0827   17.0720    8.8434 H     429  UNL429      0.0521
   2572 H           9.0828   17.6463    7.1469 H     429  UNL429      0.0521
   2573 H           9.0927   18.8196    8.4894 H     429  UNL429      0.0521
   2574 H          11.1495   16.9606    7.8602 H     429  UNL429      0.2090
   2575 O          12.8638   17.5713   11.1181 O.3   430  UNL430     -0.3982
   2576 C          11.4480   17.5713   11.1181 C.3   430  UNL430      0.0330
   2577 H          11.0827   17.4825   10.0919 H     430  UNL430      0.0521
   2578 H          11.0828   18.4980   11.5673 H     430  UNL430      0.0521
   2579 H          11.0927   16.7203   11.7039 H     430  UNL430      0.0521
   2580 H          13.1495   18.3369   10.5911 H     430  UNL430      0.2090
   2581 O          12.8638   17.5713   14.0405 O.3   431  UNL431     -0.3982
   2582 C          11.4480   17.5713   14.0405 C.3   431  UNL431      0.0330
   2583 H          11.0827   17.4825   13.0143 H     431  UNL431      0.0521
   2584 H          11.0828   18.4980   14.4897 H     431  UNL431      0.0521
   2585 H          11.0927   16.7203   14.6263 H     431  UNL431      0.0521
   2586 H          13.1495   18.3369   13.5135 H     431  UNL431      0.2090
   2587 O          12.7388   17.5713   16.9628 O.3   432  UNL432     -0.3982
   2588 C          11.3230   17.5713   16.9628 C.3   432  UNL432      0.0330
   2589 H          10.9577   17.4825   15.9367 H     432  UNL432      0.0521
   2590 H          10.9578   18.4980   17.4121 H     432  UNL432      0.0521
   2591 H          10.9677   16.7203   17.5486 H     432  UNL432      0.0521
   2592 H          13.0245   18.3369   16.4358 H     432  UNL432      0.2090
   2593 O          10.8638   17.8410   19.8477 O.3   433  UNL433     -0.3982
   2594 C           9.4480   17.8410   19.8477 C.3   433  UNL433      0.0330
   2595 H           9.0827   17.0720   20.5329 H     433  UNL433      0.0521
   2596 H           9.0828   17.6463   18.8364 H     433  UNL433      0.0521
   2597 H           9.0927   18.8196   20.1789 H     433  UNL433      0.0521
   2598 H          11.1495   16.9606   19.5497 H     433  UNL433      0.2090
   2599 O          10.8638   17.8410   22.7701 O.3   434  UNL434     -0.3982
   2600 C           9.4480   17.8410   22.7701 C.3   434  UNL434      0.0330
   2601 H           9.0827   17.0720   23.4552 H     434  UNL434      0.0521
   2602 H           9.0828   17.6463   21.7588 H     434  UNL434      0.0521
   2603 H           9.0927   18.8196   23.1012 H     434  UNL434      0.0521
   2604 H          11.1495   16.9606   22.4720 H     434  UNL434      0.2090
   2605 O          10.8638   17.8410   25.6924 O.3   435  UNL435     -0.3982
   2606 C           9.4480   17.8410   25.6924 C.3   435  UNL435      0.0330
   2607 H           9.0827   17.0720   26.3776 H     435  UNL435      0.0521
   2608 H           9.0828   17.6463   24.6811 H     435  UNL435      0.0521
   2609 H           9.0927   18.8196   26.0236 H     435  UNL435      0.0521
   2610 H          11.1495   16.9606   25.3944 H     435  UNL435      0.2090
   2611 O          10.8638   17.8410   28.6148 O.3   436  UNL436     -0.3982
   2612 C           9.4480   17.8410   28.6148 C.3   436  UNL436      0.0330
   2613 H           9.0827   17.0720   29.3000 H     436  UNL436      0.0521
   2614 H           9.0828   17.6463   27.6035 H     436  UNL436      0.0521
   2615 H           9.0927   18.8196   28.9460 H     436  UNL436      0.0521
   2616 H          11.1495   16.9606   28.3168 H     436  UNL436      0.2090
   2617 O          10.8638   20.8852   -0.6090 O.3   437  UNL437     -0.3982
   2618 C           9.4480   20.8852   -0.6090 C.3   437  UNL437      0.0330
   2619 H           9.0827   20.1162    0.0762 H     437  UNL437      0.0521
   2620 H           9.0828   20.6905   -1.6203 H     437  UNL437      0.0521
   2621 H           9.0927   21.8638   -0.2778 H     437  UNL437      0.0521
   2622 H          11.1495   20.0048   -0.9070 H     437  UNL437      0.2090
   2623 O          12.8638   20.6155    2.3510 O.3   438  UNL438     -0.3982
   2624 C          11.4480   20.6155    2.3510 C.3   438  UNL438      0.0330
   2625 H          11.0827   20.5268    1.3248 H     438  UNL438      0.0521
   2626 H          11.0828   21.5422    2.8002 H     438  UNL438      0.0521
   2627 H          11.0927   19.7645    2.9368 H     438  UNL438      0.0521
   2628 H          13.1495   21.3812    1.8240 H     438  UNL438      0.2090
   2629 O          12.8638   20.6155    5.2733 O.3   439  UNL439     -0.3982
   2630 C          11.4480   20.6155    5.2733 C.3   439  UNL439      0.0330
   2631 H          11.0827   20.5268    4.2472 H     439  UNL439      0.0521
   2632 H          11.0828   21.5422    5.7226 H     439  UNL439      0.0521
   2633 H          11.0927   19.7645    5.8591 H     439  UNL439      0.0521
   2634 H          13.1495   21.3812    4.7463 H     439  UNL439      0.2090
   2635 O          12.7388   20.9306    8.2472 O.3   440  UNL440     -0.3982
   2636 C          11.3230   20.9306    8.2472 C.3   440  UNL440      0.0330
   2637 H          10.9577   19.9038    8.1667 H     440  UNL440      0.0521
   2638 H          10.9578   21.5256    7.4066 H     440  UNL440      0.0521
   2639 H          10.9677   21.3691    9.1827 H     440  UNL440      0.0521
   2640 H          13.0245   20.5361    7.4056 H     440  UNL440      0.2090
   2641 O          12.8638   20.6937   10.8870 O.3   441  UNL441     -0.3982
   2642 C          11.4480   20.6937   10.8870 C.3   441  UNL441      0.0330
   2643 H          11.0827   21.7029   11.0930 H     441  UNL441      0.0521
   2644 H          11.0828   20.0001   11.6482 H     441  UNL441      0.0521
   2645 H          11.0927   20.3734    9.9047 H     441  UNL441      0.0521
   2646 H          13.1495   20.9819   11.7706 H     441  UNL441      0.2090
   2647 O          12.8638   20.8852   14.0029 O.3   442  UNL442     -0.3982
   2648 C          11.4480   20.8852   14.0029 C.3   442  UNL442      0.0330
   2649 H          11.0827   20.1162   14.6881 H     442  UNL442      0.0521
   2650 H          11.0828   20.6905   12.9916 H     442  UNL442      0.0521
   2651 H          11.0927   21.8638   14.3341 H     442  UNL442      0.0521
   2652 H          13.1495   20.0048   13.7049 H     442  UNL442      0.2090
   2653 O          10.8638   20.8852   16.9253 O.3   443  UNL443     -0.3982
   2654 C           9.4480   20.8852   16.9253 C.3   443  UNL443      0.0330
   2655 H           9.0827   20.1162   17.6105 H     443  UNL443      0.0521
   2656 H           9.0828   20.6905   15.9140 H     443  UNL443      0.0521
   2657 H           9.0927   21.8638   17.2565 H     443  UNL443      0.0521
   2658 H          11.1495   20.0048   16.6273 H     443  UNL443      0.2090
   2659 O          10.8638   20.8852   19.8477 O.3   444  UNL444     -0.3982
   2660 C           9.4480   20.8852   19.8477 C.3   444  UNL444      0.0330
   2661 H           9.0827   20.1162   20.5329 H     444  UNL444      0.0521
   2662 H           9.0828   20.6905   18.8364 H     444  UNL444      0.0521
   2663 H           9.0927   21.8638   20.1789 H     444  UNL444      0.0521
   2664 H          11.1495   20.0048   19.5497 H     444  UNL444      0.2090
   2665 O          12.8638   20.6155   22.8076 O.3   445  UNL445     -0.3982
   2666 C          11.4480   20.6155   22.8076 C.3   445  UNL445      0.0330
   2667 H          11.0827   20.5268   21.7814 H     445  UNL445      0.0521
   2668 H          11.0828   21.5422   23.2568 H     445  UNL445      0.0521
   2669 H          11.0927   19.7645   23.3934 H     445  UNL445      0.0521
   2670 H          13.1495   21.3812   22.2806 H     445  UNL445      0.2090
   2671 O          12.8638   20.6155   25.7300 O.3   446  UNL446     -0.3982
   2672 C          11.4480   20.6155   25.7300 C.3   446  UNL446      0.0330
   2673 H          11.0827   20.5268   24.7038 H     446  UNL446      0.0521
   2674 H          11.0828   21.5422   26.1792 H     446  UNL446      0.0521
   2675 H          11.0927   19.7645   26.3158 H     446  UNL446      0.0521
   2676 H          13.1495   21.3812   25.2030 H     446  UNL446      0.2090
   2677 O          11.0209   19.9932   28.6148 O.3   447  UNL447     -0.3982
   2678 C          12.2786   20.6433   28.6148 C.3   447  UNL447      0.0330
   2679 H          12.2500   21.4941   29.3000 H     447  UNL447      0.0521
   2680 H          12.5136   20.9839   27.6035 H     447  UNL447      0.0521
   2681 H          13.0436   19.9371   28.9460 H     447  UNL447      0.0521
   2682 H          10.3628   20.6442   28.3168 H     447  UNL447      0.2090
   2683 O          12.7388   23.8499   -0.6449 O.3   448  UNL448     -0.3982
   2684 C          11.3230   23.8499   -0.6449 C.3   448  UNL448      0.0330
   2685 H          10.9577   22.8230   -0.7254 H     448  UNL448      0.0521
   2686 H          10.9578   24.4448   -1.4855 H     448  UNL448      0.0521
   2687 H          10.9677   24.2883    0.2906 H     448  UNL448      0.0521
   2688 H          13.0245   23.4554   -1.4865 H     448  UNL448      0.2090
   2689 O          12.8638   23.9203    2.1943 O.3   449  UNL449     -0.3982
   2690 C          11.4480   23.9203    2.1943 C.3   449  UNL449      0.0330
   2691 H          11.0827   23.8824    3.2236 H     449  UNL449      0.0521
   2692 H          11.0828   23.0558    1.6347 H     449  UNL449      0.0521
   2693 H          11.0927   24.8368    1.7174 H     449  UNL449      0.0521
   2694 H          13.1495   23.0958    2.6233 H     449  UNL449      0.2090
   2695 O          10.8638   23.9295    5.2358 O.3   450  UNL450     -0.3982
   2696 C           9.4480   23.9295    5.2358 C.3   450  UNL450      0.0330
   2697 H           9.0827   23.1605    5.9210 H     450  UNL450      0.0521
   2698 H           9.0828   23.7348    4.2245 H     450  UNL450      0.0521
   2699 H           9.0927   24.9081    5.5670 H     450  UNL450      0.0521
   2700 H          11.1495   23.0491    4.9378 H     450  UNL450      0.2090
   2701 O          10.8638   23.9295    8.1582 O.3   451  UNL451     -0.3982
   2702 C           9.4480   23.9295    8.1582 C.3   451  UNL451      0.0330
   2703 H           9.0827   23.1605    8.8434 H     451  UNL451      0.0521
   2704 H           9.0828   23.7348    7.1469 H     451  UNL451      0.0521
   2705 H           9.0927   24.9081    8.4894 H     451  UNL451      0.0521
   2706 H          11.1495   23.0491    7.8602 H     451  UNL451      0.2090
   2707 O          12.8638   23.7380   10.8870 O.3   452  UNL452     -0.3982
   2708 C          11.4480   23.7380   10.8870 C.3   452  UNL452      0.0330
   2709 H          11.0827   24.7472   11.0930 H     452  UNL452      0.0521
   2710 H          11.0828   23.0443   11.6482 H     452  UNL452      0.0521
   2711 H          11.0927   23.4177    9.9047 H     452  UNL452      0.0521
   2712 H          13.1495   24.0261   11.7706 H     452  UNL452      0.2090
   2713 O          12.8638   23.9295   14.0029 O.3   453  UNL453     -0.3982
   2714 C          11.4480   23.9295   14.0029 C.3   453  UNL453      0.0330
   2715 H          11.0827   23.1605   14.6881 H     453  UNL453      0.0521
   2716 H          11.0828   23.7348   12.9916 H     453  UNL453      0.0521
   2717 H          11.0927   24.9081   14.3341 H     453  UNL453      0.0521
   2718 H          13.1495   23.0491   13.7049 H     453  UNL453      0.2090
   2719 O          11.3849   23.2477   17.6078 O.3   454  UNL454     -0.3982
   2720 C          12.0355   23.7961   16.4763 C.3   454  UNL454      0.0330
   2721 H          12.4671   24.7656   16.7373 H     454  UNL454      0.0521
   2722 H          11.3160   23.9129   15.6622 H     454  UNL454      0.0521
   2723 H          12.8321   23.1181   16.1610 H     454  UNL454      0.0521
   2724 H          10.6839   23.8708   17.8643 H     454  UNL454      0.2090
   2725 O          10.8638   23.9295   19.8477 O.3   455  UNL455     -0.3982
   2726 C           9.4480   23.9295   19.8477 C.3   455  UNL455      0.0330
   2727 H           9.0827   23.1605   20.5329 H     455  UNL455      0.0521
   2728 H           9.0828   23.7348   18.8364 H     455  UNL455      0.0521
   2729 H           9.0927   24.9081   20.1789 H     455  UNL455      0.0521
   2730 H          11.1495   23.0491   19.5497 H     455  UNL455      0.2090
   2731 O          10.8638   23.9295   22.7701 O.3   456  UNL456     -0.3982
   2732 C           9.4480   23.9295   22.7701 C.3   456  UNL456      0.0330
   2733 H           9.0827   23.1605   23.4552 H     456  UNL456      0.0521
   2734 H           9.0828   23.7348   21.7588 H     456  UNL456      0.0521
   2735 H           9.0927   24.9081   23.1012 H     456  UNL456      0.0521
   2736 H          11.1495   23.0491   22.4720 H     456  UNL456      0.2090
   2737 O          10.8638   23.9295   25.6924 O.3   457  UNL457     -0.3982
   2738 C           9.4480   23.9295   25.6924 C.3   457  UNL457      0.0330
   2739 H           9.0827   23.1605   26.3776 H     457  UNL457      0.0521
   2740 H           9.0828   23.7348   24.6811 H     457  UNL457      0.0521
   2741 H           9.0927   24.9081   26.0236 H     457  UNL457      0.0521
   2742 H          11.1495   23.0491   25.3944 H     457  UNL457      0.2090
   2743 O          10.8638   23.9295   28.6148 O.3   458  UNL458     -0.3982
   2744 C           9.4480   23.9295   28.6148 C.3   458  UNL458      0.0330
   2745 H           9.0827   23.1605   29.3000 H     458  UNL458      0.0521
   2746 H           9.0828   23.7348   27.6035 H     458  UNL458      0.0521
   2747 H           9.0927   24.9081   28.9460 H     458  UNL458      0.0521
   2748 H          11.1495   23.0491   28.3168 H     458  UNL458      0.2090
   2749 O          10.8638   26.9737   -0.6090 O.3   459  UNL459     -0.3982
   2750 C           9.4480   26.9737   -0.6090 C.3   459  UNL459      0.0330
   2751 H           9.0827   26.2047    0.0762 H     459  UNL459      0.0521
   2752 H           9.0828   26.7790   -1.6203 H     459  UNL459      0.0521
   2753 H           9.0927   27.9523   -0.2778 H     459  UNL459      0.0521
   2754 H          11.1495   26.0933   -0.9070 H     459  UNL459      0.2090
   2755 O          12.8638   26.9737    2.3134 O.3   460  UNL460     -0.3982
   2756 C          11.4480   26.9737    2.3134 C.3   460  UNL460      0.0330
   2757 H          11.0827   26.2047    2.9986 H     460  UNL460      0.0521
   2758 H          11.0828   26.7790    1.3021 H     460  UNL460      0.0521
   2759 H          11.0927   27.9523    2.6446 H     460  UNL460      0.0521
   2760 H          13.1495   26.0933    2.0154 H     460  UNL460      0.2090
   2761 O          11.9930   27.4680    6.0433 O.3   461  UNL461     -0.3982
   2762 C          11.5546   26.7387    4.9118 C.3   461  UNL461      0.0330
   2763 H          11.4594   25.6817    5.1728 H     461  UNL461      0.0521
   2764 H          12.2732   26.8607    4.0977 H     461  UNL461      0.0521
   2765 H          10.5816   27.1229    4.5965 H     461  UNL461      0.0521
   2766 H          12.8578   27.1049    6.2998 H     461  UNL461      0.2090
   2767 O          12.8638   26.7040    8.1957 O.3   462  UNL462     -0.3982
   2768 C          11.4480   26.7040    8.1957 C.3   462  UNL462      0.0330
   2769 H          11.0827   26.6153    7.1696 H     462  UNL462      0.0521
   2770 H          11.0828   27.6308    8.6449 H     462  UNL462      0.0521
   2771 H          11.0927   25.8530    8.7815 H     462  UNL462      0.0521
   2772 H          13.1495   27.4697    7.6687 H     462  UNL462      0.2090
   2773 O          12.8638   26.9737   11.0806 O.3   463  UNL463     -0.3982
   2774 C          11.4480   26.9737   11.0806 C.3   463  UNL463      0.0330
   2775 H          11.0827   26.2047   11.7658 H     463  UNL463      0.0521
   2776 H          11.0828   26.7790   10.0693 H     463  UNL463      0.0521
   2777 H          11.0927   27.9523   11.4118 H     463  UNL463      0.0521
   2778 H          13.1495   26.0933   10.7826 H     463  UNL463      0.2090
   2779 O          12.8638   26.9737   14.0029 O.3   464  UNL464     -0.3982
   2780 C          11.4480   26.9737   14.0029 C.3   464  UNL464      0.0330
   2781 H          11.0827   26.2047   14.6881 H     464  UNL464      0.0521
   2782 H          11.0828   26.7790   12.9916 H     464  UNL464      0.0521
   2783 H          11.0927   27.9523   14.3341 H     464  UNL464      0.0521
   2784 H          13.1495   26.0933   13.7049 H     464  UNL464      0.2090
   2785 O          12.8638   26.9737   16.9253 O.3   465  UNL465     -0.3982
   2786 C          11.4480   26.9737   16.9253 C.3   465  UNL465      0.0330
   2787 H          11.0827   26.2047   17.6105 H     465  UNL465      0.0521
   2788 H          11.0828   26.7790   15.9140 H     465  UNL465      0.0521
   2789 H          11.0927   27.9523   17.2565 H     465  UNL465      0.0521
   2790 H          13.1495   26.0933   16.6273 H     465  UNL465      0.2090
   2791 O          10.8638   26.9737   19.8477 O.3   466  UNL466     -0.3982
   2792 C           9.4480   26.9737   19.8477 C.3   466  UNL466      0.0330
   2793 H           9.0827   26.2047   20.5329 H     466  UNL466      0.0521
   2794 H           9.0828   26.7790   18.8364 H     466  UNL466      0.0521
   2795 H           9.0927   27.9523   20.1789 H     466  UNL466      0.0521
   2796 H          11.1495   26.0933   19.5497 H     466  UNL466      0.2090
   2797 O          11.5533   27.3610   23.6413 O.3   467  UNL467     -0.3982
   2798 C          11.7324   26.5291   22.5098 C.3   467  UNL467      0.0330
   2799 H          12.7837   26.2414   22.4308 H     467  UNL467      0.0521
   2800 H          11.4217   27.0651   21.6097 H     467  UNL467      0.0521
   2801 H          11.1193   25.6325   22.6273 H     467  UNL467      0.0521
   2802 H          12.1091   28.1477   23.5085 H     467  UNL467      0.2090
   2803 O          12.7388   26.7237   25.5340 O.3   468  UNL468     -0.3982
   2804 C          11.3230   26.7237   25.5340 C.3   468  UNL468      0.0330
   2805 H          10.9577   27.7215   25.2784 H     468  UNL468      0.0521
   2806 H          10.9578   26.4324   26.5218 H     468  UNL468      0.0521
   2807 H          10.9677   26.0064   24.7905 H     468  UNL468      0.0521
   2808 H          13.0245   27.3690   26.2030 H     468  UNL468      0.2090
   2809 O          11.8356   26.2510   29.4861 O.3   469  UNL469     -0.3982
   2810 C          11.9349   27.0962   28.3546 C.3   469  UNL469      0.0330
   2811 H          11.0330   27.7083   28.2755 H     469  UNL469      0.0521
   2812 H          12.0558   26.4886   27.4544 H     469  UNL469      0.0521
   2813 H          12.8049   27.7465   28.4720 H     469  UNL469      0.0521
   2814 H          11.0553   25.6862   29.3532 H     469  UNL469      0.2090
   2815 O          10.8638   30.0180   -0.6090 O.3   470  UNL470     -0.3982
   2816 C           9.4480   30.0180   -0.6090 C.3   470  UNL470      0.0330
   2817 H           9.0827   29.2490    0.0762 H     470  UNL470      0.0521
   2818 H           9.0828   29.8233   -1.6203 H     470  UNL470      0.0521
   2819 H           9.0927   30.9966   -0.2778 H     470  UNL470      0.0521
   2820 H          11.1495   29.1376   -0.9070 H     470  UNL470      0.2090
   2821 O          10.8638   30.0180    2.3134 O.3   471  UNL471     -0.3982
   2822 C           9.4480   30.0180    2.3134 C.3   471  UNL471      0.0330
   2823 H           9.0827   29.2490    2.9986 H     471  UNL471      0.0521
   2824 H           9.0828   29.8233    1.3021 H     471  UNL471      0.0521
   2825 H           9.0927   30.9966    2.6446 H     471  UNL471      0.0521
   2826 H          11.1495   29.1376    2.0154 H     471  UNL471      0.2090
   2827 O          10.8638   30.0088    5.1167 O.3   472  UNL472     -0.3982
   2828 C           9.4480   30.0088    5.1167 C.3   472  UNL472      0.0330
   2829 H           9.0827   29.9709    6.1460 H     472  UNL472      0.0521
   2830 H           9.0828   29.1443    4.5571 H     472  UNL472      0.0521
   2831 H           9.0927   30.9253    4.6398 H     472  UNL472      0.0521
   2832 H          11.1495   29.1843    5.5457 H     472  UNL472      0.2090
   2833 O          12.8638   30.0088    8.0391 O.3   473  UNL473     -0.3982
   2834 C          11.4480   30.0088    8.0391 C.3   473  UNL473      0.0330
   2835 H          11.0827   29.9709    9.0683 H     473  UNL473      0.0521
   2836 H          11.0828   29.1443    7.4794 H     473  UNL473      0.0521
   2837 H          11.0927   30.9253    7.5622 H     473  UNL473      0.0521
   2838 H          13.1495   29.1843    8.4681 H     473  UNL473      0.2090
   2839 O          10.8638   30.0180   11.0806 O.3   474  UNL474     -0.3982
   2840 C           9.4480   30.0180   11.0806 C.3   474  UNL474      0.0330
   2841 H           9.0827   29.2490   11.7658 H     474  UNL474      0.0521
   2842 H           9.0828   29.8233   10.0693 H     474  UNL474      0.0521
   2843 H           9.0927   30.9966   11.4118 H     474  UNL474      0.0521
   2844 H          11.1495   29.1376   10.7826 H     474  UNL474      0.2090
   2845 O          10.8638   30.0180   14.0029 O.3   475  UNL475     -0.3982
   2846 C           9.4480   30.0180   14.0029 C.3   475  UNL475      0.0330
   2847 H           9.0827   29.2490   14.6881 H     475  UNL475      0.0521
   2848 H           9.0828   29.8233   12.9916 H     475  UNL475      0.0521
   2849 H           9.0927   30.9966   14.3341 H     475  UNL475      0.0521
   2850 H          11.1495   29.1376   13.7049 H     475  UNL475      0.2090
   2851 O          10.8638   30.0180   16.9253 O.3   476  UNL476     -0.3982
   2852 C           9.4480   30.0180   16.9253 C.3   476  UNL476      0.0330
   2853 H           9.0827   29.2490   17.6105 H     476  UNL476      0.0521
   2854 H           9.0828   29.8233   15.9140 H     476  UNL476      0.0521
   2855 H           9.0927   30.9966   17.2565 H     476  UNL476      0.0521
   2856 H          11.1495   29.1376   16.6273 H     476  UNL476      0.2090
   2857 O          10.8638   30.0180   19.8477 O.3   477  UNL477     -0.3982
   2858 C           9.4480   30.0180   19.8477 C.3   477  UNL477      0.0330
   2859 H           9.0827   29.2490   20.5329 H     477  UNL477      0.0521
   2860 H           9.0828   29.8233   18.8364 H     477  UNL477      0.0521
   2861 H           9.0927   30.9966   20.1789 H     477  UNL477      0.0521
   2862 H          11.1495   29.1376   19.5497 H     477  UNL477      0.2090
   2863 O          10.8638   30.0180   22.7701 O.3   478  UNL478     -0.3982
   2864 C           9.4480   30.0180   22.7701 C.3   478  UNL478      0.0330
   2865 H           9.0827   29.2490   23.4552 H     478  UNL478      0.0521
   2866 H           9.0828   29.8233   21.7588 H     478  UNL478      0.0521
   2867 H           9.0927   30.9966   23.1012 H     478  UNL478      0.0521
   2868 H          11.1495   29.1376   22.4720 H     478  UNL478      0.2090
   2869 O          10.8638   30.0180   25.6924 O.3   479  UNL479     -0.3982
   2870 C           9.4480   30.0180   25.6924 C.3   479  UNL479      0.0330
   2871 H           9.0827   29.2490   26.3776 H     479  UNL479      0.0521
   2872 H           9.0828   29.8233   24.6811 H     479  UNL479      0.0521
   2873 H           9.0927   30.9966   26.0236 H     479  UNL479      0.0521
   2874 H          11.1495   29.1376   25.3944 H     479  UNL479      0.2090
   2875 O          12.8638   30.0180   28.6148 O.3   480  UNL480     -0.3982
   2876 C          11.4480   30.0180   28.6148 C.3   480  UNL480      0.0330
   2877 H          11.0827   29.2490   29.3000 H     480  UNL480      0.0521
   2878 H          11.0828   29.8233   27.6035 H     480  UNL480      0.0521
   2879 H          11.0927   30.9966   28.9460 H     480  UNL480      0.0521
   2880 H          13.1495   29.1376   28.3168 H     480  UNL480      0.2090
   2881 O          16.2157   -0.5692   -0.5714 O.3   481  UNL481     -0.3982
   2882 C          14.7999   -0.5692   -0.5714 C.3   481  UNL481      0.0330
   2883 H          14.4346   -0.6580   -1.5976 H     481  UNL481      0.0521
   2884 H          14.4347    0.3575   -0.1222 H     481  UNL481      0.0521
   2885 H          14.4446   -1.4202    0.0144 H     481  UNL481      0.0521
   2886 H          16.5014    0.1964   -1.0984 H     481  UNL481      0.2090
   2887 O          16.3407   -0.4333    2.3342 O.3   482  UNL482     -0.3982
   2888 C          14.9249   -0.4333    2.3342 C.3   482  UNL482      0.0330
   2889 H          14.5596   -1.2949    2.8985 H     482  UNL482      0.0521
   2890 H          14.5597   -0.4768    1.3052 H     482  UNL482      0.0521
   2891 H          14.5696    0.4858    2.8060 H     482  UNL482      0.0521
   2892 H          16.6264   -1.2602    1.9096 H     482  UNL482      0.2090
   2893 O          15.7496   -0.2515    6.1071 O.3   483  UNL483     -0.3982
   2894 C          14.9583   -0.5646    4.9756 C.3   483  UNL483      0.0330
   2895 H          14.8466   -1.6488    4.8965 H     483  UNL483      0.0521
   2896 H          15.4361   -0.1702    4.0754 H     483  UNL483      0.0521
   2897 H          13.9734   -0.1066    5.0930 H     483  UNL483      0.0521
   2898 H          16.6167   -0.6710    5.9742 H     483  UNL483      0.2090
   2899 O          16.2157   -0.3083    8.1789 O.3   484  UNL484     -0.3982
   2900 C          14.7999   -0.3083    8.1789 C.3   484  UNL484      0.0330
   2901 H          14.4346   -1.1699    8.7433 H     484  UNL484      0.0521
   2902 H          14.4347   -0.3518    7.1500 H     484  UNL484      0.0521
   2903 H          14.4446    0.6108    8.6507 H     484  UNL484      0.0521
   2904 H          16.5014   -1.1352    7.7544 H     484  UNL484      0.2090
   2905 O          16.3407   -0.4245   11.0806 O.3   485  UNL485     -0.3982
   2906 C          14.9249   -0.4245   11.0806 C.3   485  UNL485      0.0330
   2907 H          14.5596   -1.1935   11.7658 H     485  UNL485      0.0521
   2908 H          14.5597   -0.6192   10.0693 H     485  UNL485      0.0521
   2909 H          14.5696    0.5541   11.4118 H     485  UNL485      0.0521
   2910 H          16.6264   -1.3049   10.7826 H     485  UNL485      0.2090
   2911 O          14.3407   -0.4245   14.0029 O.3   486  UNL486     -0.3982
   2912 C          12.9249   -0.4245   14.0029 C.3   486  UNL486      0.0330
   2913 H          12.5596   -1.1935   14.6881 H     486  UNL486      0.0521
   2914 H          12.5597   -0.6192   12.9916 H     486  UNL486      0.0521
   2915 H          12.5696    0.5541   14.3341 H     486  UNL486      0.0521
   2916 H          14.6264   -1.3049   13.7049 H     486  UNL486      0.2090
   2917 O          16.3407   -0.5041   17.0144 O.3   487  UNL487     -0.3982
   2918 C          14.9249   -0.5041   17.0144 C.3   487  UNL487      0.0330
   2919 H          14.5596   -1.5310   16.9338 H     487  UNL487      0.0521
   2920 H          14.5597    0.0908   16.1738 H     487  UNL487      0.0521
   2921 H          14.5696   -0.0657   17.9498 H     487  UNL487      0.0521
   2922 H          16.6264   -0.8986   16.1728 H     487  UNL487      0.2090
   2923 O          15.9814   -0.7279   18.9971 O.3   488  UNL488     -0.3982
   2924 C          15.1901   -0.4148   20.1286 C.3   488  UNL488      0.0330
   2925 H          14.8935   -1.3376   20.6335 H     488  UNL488      0.0521
   2926 H          14.3041    0.1410   19.8123 H     488  UNL488      0.0521
   2927 H          15.7779    0.2002   20.8141 H     488  UNL488      0.0521
   2928 H          15.4336   -1.2737   18.4076 H     488  UNL488      0.2090
   2929 O          16.2157   -0.5692   22.8076 O.3   489  UNL489     -0.3982
   2930 C          14.7999   -0.5692   22.8076 C.3   489  UNL489      0.0330
   2931 H          14.4346   -0.6580   21.7814 H     489  UNL489      0.0521
   2932 H          14.4347    0.3575   23.2568 H     489  UNL489      0.0521
   2933 H          14.4446   -1.4202   23.3934 H     489  UNL489      0.0521
   2934 H          16.5014    0.1964   22.2806 H     489  UNL489      0.2090
   2935 O          16.3407   -0.6942   25.7300 O.3   490  UNL490     -0.3982
   2936 C          14.9249   -0.6942   25.7300 C.3   490  UNL490      0.0330
   2937 H          14.5596   -0.7830   24.7038 H     490  UNL490      0.0521
   2938 H          14.5597    0.2325   26.1792 H     490  UNL490      0.0521
   2939 H          14.5696   -1.5452   26.3158 H     490  UNL490      0.0521
   2940 H          16.6264    0.0714   25.2030 H     490  UNL490      0.2090
   2941 O          16.3407   -0.4245   28.6148 O.3   491  UNL491     -0.3982
   2942 C          14.9249   -0.4245   28.6148 C.3   491  UNL491      0.0330
   2943 H          14.5596   -1.1935   29.3000 H     491  UNL491      0.0521
   2944 H          14.5597   -0.6192   27.6035 H     491  UNL491      0.0521
   2945 H          14.5696    0.5541   28.9460 H     491  UNL491      0.0521
   2946 H          16.6264   -1.3049   28.3168 H     491  UNL491      0.2090
   2947 O          14.3407    2.6197   -0.6090 O.3   492  UNL492     -0.3982
   2948 C          12.9249    2.6197   -0.6090 C.3   492  UNL492      0.0330
   2949 H          12.5596    1.8507    0.0762 H     492  UNL492      0.0521
   2950 H          12.5597    2.4250   -1.6203 H     492  UNL492      0.0521
   2951 H          12.5696    3.5983   -0.2778 H     492  UNL492      0.0521
   2952 H          14.6264    1.7393   -0.9070 H     492  UNL492      0.2090
   2953 O          14.3407    2.6197    2.3134 O.3   493  UNL493     -0.3982
   2954 C          12.9249    2.6197    2.3134 C.3   493  UNL493      0.0330
   2955 H          12.5596    1.8507    2.9986 H     493  UNL493      0.0521
   2956 H          12.5597    2.4250    1.3021 H     493  UNL493      0.0521
   2957 H          12.5696    3.5983    2.6446 H     493  UNL493      0.0521
   2958 H          14.6264    1.7393    2.0154 H     493  UNL493      0.2090
   2959 O          14.3407    2.6197    5.2358 O.3   494  UNL494     -0.3982
   2960 C          12.9249    2.6197    5.2358 C.3   494  UNL494      0.0330
   2961 H          12.5596    1.8507    5.9210 H     494  UNL494      0.0521
   2962 H          12.5597    2.4250    4.2245 H     494  UNL494      0.0521
   2963 H          12.5696    3.5983    5.5670 H     494  UNL494      0.0521
   2964 H          14.6264    1.7393    4.9378 H     494  UNL494      0.2090
   2965 O          14.3407    2.6197    8.1582 O.3   495  UNL495     -0.3982
   2966 C          12.9249    2.6197    8.1582 C.3   495  UNL495      0.0330
   2967 H          12.5596    1.8507    8.8434 H     495  UNL495      0.0521
   2968 H          12.5597    2.4250    7.1469 H     495  UNL495      0.0521
   2969 H          12.5696    3.5983    8.4894 H     495  UNL495      0.0521
   2970 H          14.6264    1.7393    7.8602 H     495  UNL495      0.2090
   2971 O          16.3407    2.6197   11.0806 O.3   496  UNL496     -0.3982
   2972 C          14.9249    2.6197   11.0806 C.3   496  UNL496      0.0330
   2973 H          14.5596    1.8507   11.7658 H     496  UNL496      0.0521
   2974 H          14.5597    2.4250   10.0693 H     496  UNL496      0.0521
   2975 H          14.5696    3.5983   11.4118 H     496  UNL496      0.0521
   2976 H          16.6264    1.7393   10.7826 H     496  UNL496      0.2090
   2977 O          14.3407    2.6197   14.0029 O.3   497  UNL497     -0.3982
   2978 C          12.9249    2.6197   14.0029 C.3   497  UNL497      0.0330
   2979 H          12.5596    1.8507   14.6881 H     497  UNL497      0.0521
   2980 H          12.5597    2.4250   12.9916 H     497  UNL497      0.0521
   2981 H          12.5696    3.5983   14.3341 H     497  UNL497      0.0521
   2982 H          14.6264    1.7393   13.7049 H     497  UNL497      0.2090
   2983 O          14.3407    2.6197   16.9253 O.3   498  UNL498     -0.3982
   2984 C          12.9249    2.6197   16.9253 C.3   498  UNL498      0.0330
   2985 H          12.5596    1.8507   17.6105 H     498  UNL498      0.0521
   2986 H          12.5597    2.4250   15.9140 H     498  UNL498      0.0521
   2987 H          12.5696    3.5983   17.2565 H     498  UNL498      0.0521
   2988 H          14.6264    1.7393   16.6273 H     498  UNL498      0.2090
   2989 O          14.3407    2.6197   19.8477 O.3   499  UNL499     -0.3982
   2990 C          12.9249    2.6197   19.8477 C.3   499  UNL499      0.0330
   2991 H          12.5596    1.8507   20.5329 H     499  UNL499      0.0521
   2992 H          12.5597    2.4250   18.8364 H     499  UNL499      0.0521
   2993 H          12.5696    3.5983   20.1789 H     499  UNL499      0.0521
   2994 H          14.6264    1.7393   19.5497 H     499  UNL499      0.2090
   2995 O          14.3407    2.6197   22.7701 O.3   500  UNL500     -0.3982
   2996 C          12.9249    2.6197   22.7701 C.3   500  UNL500      0.0330
   2997 H          12.5596    1.8507   23.4552 H     500  UNL500      0.0521
   2998 H          12.5597    2.4250   21.7588 H     500  UNL500      0.0521
   2999 H          12.5696    3.5983   23.1012 H     500  UNL500      0.0521
   3000 H          14.6264    1.7393   22.4720 H     500  UNL500      0.2090
   3001 O          14.3407    2.6197   25.6924 O.3   501  UNL501     -0.3982
   3002 C          12.9249    2.6197   25.6924 C.3   501  UNL501      0.0330
   3003 H          12.5596    1.8507   26.3776 H     501  UNL501      0.0521
   3004 H          12.5597    2.4250   24.6811 H     501  UNL501      0.0521
   3005 H          12.5696    3.5983   26.0236 H     501  UNL501      0.0521
   3006 H          14.6264    1.7393   25.3944 H     501  UNL501      0.2090
   3007 O          14.3407    2.6197   28.6148 O.3   502  UNL502     -0.3982
   3008 C          12.9249    2.6197   28.6148 C.3   502  UNL502      0.0330
   3009 H          12.5596    1.8507   29.3000 H     502  UNL502      0.0521
   3010 H          12.5597    2.4250   27.6035 H     502  UNL502      0.0521
   3011 H          12.5696    3.5983   28.9460 H     502  UNL502      0.0521
   3012 H          14.6264    1.7393   28.3168 H     502  UNL502      0.2090
   3013 O          14.3407    5.6640   -0.6090 O.3   503  UNL503     -0.3982
   3014 C          12.9249    5.6640   -0.6090 C.3   503  UNL503      0.0330
   3015 H          12.5596    4.8950    0.0762 H     503  UNL503      0.0521
   3016 H          12.5597    5.4693   -1.6203 H     503  UNL503      0.0521
   3017 H          12.5696    6.6426   -0.2778 H     503  UNL503      0.0521
   3018 H          14.6264    4.7836   -0.9070 H     503  UNL503      0.2090
   3019 O          14.3407    5.6640    2.3134 O.3   504  UNL504     -0.3982
   3020 C          12.9249    5.6640    2.3134 C.3   504  UNL504      0.0330
   3021 H          12.5596    4.8950    2.9986 H     504  UNL504      0.0521
   3022 H          12.5597    5.4693    1.3021 H     504  UNL504      0.0521
   3023 H          12.5696    6.6426    2.6446 H     504  UNL504      0.0521
   3024 H          14.6264    4.7836    2.0154 H     504  UNL504      0.2090
   3025 O          14.3407    5.6640    5.2358 O.3   505  UNL505     -0.3982
   3026 C          12.9249    5.6640    5.2358 C.3   505  UNL505      0.0330
   3027 H          12.5596    4.8950    5.9210 H     505  UNL505      0.0521
   3028 H          12.5597    5.4693    4.2245 H     505  UNL505      0.0521
   3029 H          12.5696    6.6426    5.5670 H     505  UNL505      0.0521
   3030 H          14.6264    4.7836    4.9378 H     505  UNL505      0.2090
   3031 O          14.7009    5.3766    8.9045 O.3   506  UNL506     -0.3982
   3032 C          15.5508    5.4171    7.7729 C.3   506  UNL506      0.0330
   3033 H          16.0070    6.4071    7.6939 H     506  UNL506      0.0521
   3034 H          14.9713    5.1983    6.8728 H     506  UNL506      0.0521
   3035 H          16.3349    4.6654    7.8904 H     506  UNL506      0.0521
   3036 H          14.0158    6.0538    8.7716 H     506  UNL506      0.2090
   3037 O          14.3407    5.6640   11.0806 O.3   507  UNL507     -0.3982
   3038 C          12.9249    5.6640   11.0806 C.3   507  UNL507      0.0330
   3039 H          12.5596    4.8950   11.7658 H     507  UNL507      0.0521
   3040 H          12.5597    5.4693   10.0693 H     507  UNL507      0.0521
   3041 H          12.5696    6.6426   11.4118 H     507  UNL507      0.0521
   3042 H          14.6264    4.7836   10.7826 H     507  UNL507      0.2090
   3043 O          15.7496    5.8370   14.8742 O.3   508  UNL508     -0.3982
   3044 C          14.9583    5.5239   13.7427 C.3   508  UNL508      0.0330
   3045 H          14.8466    4.4397   13.6636 H     508  UNL508      0.0521
   3046 H          15.4361    5.9183   12.8426 H     508  UNL508      0.0521
   3047 H          13.9734    5.9819   13.8602 H     508  UNL508      0.0521
   3048 H          16.6167    5.4175   14.7414 H     508  UNL508      0.2090
   3049 O          16.2157    5.5193   16.9628 O.3   509  UNL509     -0.3982
   3050 C          14.7999    5.5193   16.9628 C.3   509  UNL509      0.0330
   3051 H          14.4346    5.4305   15.9367 H     509  UNL509      0.0521
   3052 H          14.4347    6.4460   17.4121 H     509  UNL509      0.0521
   3053 H          14.4446    4.6683   17.5486 H     509  UNL509      0.0521
   3054 H          16.5014    6.2849   16.4358 H     509  UNL509      0.2090
   3055 O          15.0301    6.0512   20.7190 O.3   510  UNL510     -0.3982
   3056 C          15.2093    5.2194   19.5874 C.3   510  UNL510      0.0330
   3057 H          16.2606    4.9316   19.5084 H     510  UNL510      0.0521
   3058 H          14.8985    5.7553   18.6873 H     510  UNL510      0.0521
   3059 H          14.5962    4.3228   19.7049 H     510  UNL510      0.0521
   3060 H          15.5860    6.8379   20.5861 H     510  UNL510      0.2090
   3061 O          16.2157    5.5390   22.6116 O.3   511  UNL511     -0.3982
   3062 C          14.7999    5.5390   22.6116 C.3   511  UNL511      0.0330
   3063 H          14.4346    6.5367   22.3560 H     511  UNL511      0.0521
   3064 H          14.4347    5.2476   23.5994 H     511  UNL511      0.0521
   3065 H          14.4446    4.8217   21.8681 H     511  UNL511      0.0521
   3066 H          16.5014    6.1843   23.2806 H     511  UNL511      0.2090
   3067 O          15.7496    6.4794   25.4814 O.3   512  UNL512     -0.3982
   3068 C          14.9583    5.3118   25.6048 C.3   512  UNL512      0.0330
   3069 H          14.8466    5.0563   26.6615 H     512  UNL512      0.0521
   3070 H          15.4361    4.4885   25.0683 H     512  UNL512      0.0521
   3071 H          13.9734    5.5028   25.1723 H     512  UNL512      0.0521
   3072 H          16.6167    6.2796   25.8734 H     512  UNL512      0.2090
   3073 O          16.2157    5.7355   28.4437 O.3   513  UNL513     -0.3982
   3074 C          14.7999    5.7355   28.4437 C.3   513  UNL513      0.0330
   3075 H          14.4346    6.1511   29.3861 H     513  UNL513      0.0521
   3076 H          14.4347    4.7133   28.3181 H     513  UNL513      0.0521
   3077 H          14.4446    6.3515   27.6143 H     513  UNL513      0.0521
   3078 H          16.5014    5.1813   29.1899 H     513  UNL513      0.2090
   3079 O          14.3407    8.7082   -0.6090 O.3   514  UNL514     -0.3982
   3080 C          12.9249    8.7082   -0.6090 C.3   514  UNL514      0.0330
   3081 H          12.5596    7.9392    0.0762 H     514  UNL514      0.0521
   3082 H          12.5597    8.5135   -1.6203 H     514  UNL514      0.0521
   3083 H          12.5696    9.6868   -0.2778 H     514  UNL514      0.0521
   3084 H          14.6264    7.8278   -0.9070 H     514  UNL514      0.2090
   3085 O          14.3407    8.7082    2.3134 O.3   515  UNL515     -0.3982
   3086 C          12.9249    8.7082    2.3134 C.3   515  UNL515      0.0330
   3087 H          12.5596    7.9392    2.9986 H     515  UNL515      0.0521
   3088 H          12.5597    8.5135    1.3021 H     515  UNL515      0.0521
   3089 H          12.5696    9.6868    2.6446 H     515  UNL515      0.0521
   3090 H          14.6264    7.8278    2.0154 H     515  UNL515      0.2090
   3091 O          14.3407    8.7082    5.2358 O.3   516  UNL516     -0.3982
   3092 C          12.9249    8.7082    5.2358 C.3   516  UNL516      0.0330
   3093 H          12.5596    7.9392    5.9210 H     516  UNL516      0.0521
   3094 H          12.5597    8.5135    4.2245 H     516  UNL516      0.0521
   3095 H          12.5696    9.6868    5.5670 H     516  UNL516      0.0521
   3096 H          14.6264    7.8278    4.9378 H     516  UNL516      0.2090
   3097 O          14.3407    8.7082    8.1582 O.3   517  UNL517     -0.3982
   3098 C          12.9249    8.7082    8.1582 C.3   517  UNL517      0.0330
   3099 H          12.5596    7.9392    8.8434 H     517  UNL517      0.0521
   3100 H          12.5597    8.5135    7.1469 H     517  UNL517      0.0521
   3101 H          12.5696    9.6868    8.4894 H     517  UNL517      0.0521
   3102 H          14.6264    7.8278    7.8602 H     517  UNL517      0.2090
   3103 O          14.3407    8.7082   11.0806 O.3   518  UNL518     -0.3982
   3104 C          12.9249    8.7082   11.0806 C.3   518  UNL518      0.0330
   3105 H          12.5596    7.9392   11.7658 H     518  UNL518      0.0521
   3106 H          12.5597    8.5135   10.0693 H     518  UNL518      0.0521
   3107 H          12.5696    9.6868   11.4118 H     518  UNL518      0.0521
   3108 H          14.6264    7.8278   10.7826 H     518  UNL518      0.2090
   3109 O          14.3407    8.7082   14.0029 O.3   519  UNL519     -0.3982
   3110 C          12.9249    8.7082   14.0029 C.3   519  UNL519      0.0330
   3111 H          12.5596    7.9392   14.6881 H     519  UNL519      0.0521
   3112 H          12.5597    8.5135   12.9916 H     519  UNL519      0.0521
   3113 H          12.5696    9.6868   14.3341 H     519  UNL519      0.0521
   3114 H          14.6264    7.8278   13.7049 H     519  UNL519      0.2090
   3115 O          14.3407    8.7082   16.9253 O.3   520  UNL520     -0.3982
   3116 C          12.9249    8.7082   16.9253 C.3   520  UNL520      0.0330
   3117 H          12.5596    7.9392   17.6105 H     520  UNL520      0.0521
   3118 H          12.5597    8.5135   15.9140 H     520  UNL520      0.0521
   3119 H          12.5696    9.6868   17.2565 H     520  UNL520      0.0521
   3120 H          14.6264    7.8278   16.6273 H     520  UNL520      0.2090
   3121 O          14.3407    8.7082   19.8477 O.3   521  UNL521     -0.3982
   3122 C          12.9249    8.7082   19.8477 C.3   521  UNL521      0.0330
   3123 H          12.5596    7.9392   20.5329 H     521  UNL521      0.0521
   3124 H          12.5597    8.5135   18.8364 H     521  UNL521      0.0521
   3125 H          12.5696    9.6868   20.1789 H     521  UNL521      0.0521
   3126 H          14.6264    7.8278   19.5497 H     521  UNL521      0.2090
   3127 O          14.3407    8.7082   22.7701 O.3   522  UNL522     -0.3982
   3128 C          12.9249    8.7082   22.7701 C.3   522  UNL522      0.0330
   3129 H          12.5596    7.9392   23.4552 H     522  UNL522      0.0521
   3130 H          12.5597    8.5135   21.7588 H     522  UNL522      0.0521
   3131 H          12.5696    9.6868   23.1012 H     522  UNL522      0.0521
   3132 H          14.6264    7.8278   22.4720 H     522  UNL522      0.2090
   3133 O          14.3407    8.7082   25.6924 O.3   523  UNL523     -0.3982
   3134 C          12.9249    8.7082   25.6924 C.3   523  UNL523      0.0330
   3135 H          12.5596    7.9392   26.3776 H     523  UNL523      0.0521
   3136 H          12.5597    8.5135   24.6811 H     523  UNL523      0.0521
   3137 H          12.5696    9.6868   26.0236 H     523  UNL523      0.0521
   3138 H          14.6264    7.8278   25.3944 H     523  UNL523      0.2090
   3139 O          14.3407    8.7082   28.6148 O.3   524  UNL524     -0.3982
   3140 C          12.9249    8.7082   28.6148 C.3   524  UNL524      0.0330
   3141 H          12.5596    7.9392   29.3000 H     524  UNL524      0.0521
   3142 H          12.5597    8.5135   27.6035 H     524  UNL524      0.0521
   3143 H          12.5696    9.6868   28.9460 H     524  UNL524      0.0521
   3144 H          14.6264    7.8278   28.3168 H     524  UNL524      0.2090
   3145 O          14.3407   11.7525   -0.6090 O.3   525  UNL525     -0.3982
   3146 C          12.9249   11.7525   -0.6090 C.3   525  UNL525      0.0330
   3147 H          12.5596   10.9835    0.0762 H     525  UNL525      0.0521
   3148 H          12.5597   11.5578   -1.6203 H     525  UNL525      0.0521
   3149 H          12.5696   12.7311   -0.2778 H     525  UNL525      0.0521
   3150 H          14.6264   10.8721   -0.9070 H     525  UNL525      0.2090
   3151 O          14.3407   11.7525    2.3134 O.3   526  UNL526     -0.3982
   3152 C          12.9249   11.7525    2.3134 C.3   526  UNL526      0.0330
   3153 H          12.5596   10.9835    2.9986 H     526  UNL526      0.0521
   3154 H          12.5597   11.5578    1.3021 H     526  UNL526      0.0521
   3155 H          12.5696   12.7311    2.6446 H     526  UNL526      0.0521
   3156 H          14.6264   10.8721    2.0154 H     526  UNL526      0.2090
   3157 O          14.3407   11.7525    5.2358 O.3   527  UNL527     -0.3982
   3158 C          12.9249   11.7525    5.2358 C.3   527  UNL527      0.0330
   3159 H          12.5596   10.9835    5.9210 H     527  UNL527      0.0521
   3160 H          12.5597   11.5578    4.2245 H     527  UNL527      0.0521
   3161 H          12.5696   12.7311    5.5670 H     527  UNL527      0.0521
   3162 H          14.6264   10.8721    4.9378 H     527  UNL527      0.2090
   3163 O          14.3407   11.7525    8.1582 O.3   528  UNL528     -0.3982
   3164 C          12.9249   11.7525    8.1582 C.3   528  UNL528      0.0330
   3165 H          12.5596   10.9835    8.8434 H     528  UNL528      0.0521
   3166 H          12.5597   11.5578    7.1469 H     528  UNL528      0.0521
   3167 H          12.5696   12.7311    8.4894 H     528  UNL528      0.0521
   3168 H          14.6264   10.8721    7.8602 H     528  UNL528      0.2090
   3169 O          14.3407   11.7525   11.0806 O.3   529  UNL529     -0.3982
   3170 C          12.9249   11.7525   11.0806 C.3   529  UNL529      0.0330
   3171 H          12.5596   10.9835   11.7658 H     529  UNL529      0.0521
   3172 H          12.5597   11.5578   10.0693 H     529  UNL529      0.0521
   3173 H          12.5696   12.7311   11.4118 H     529  UNL529      0.0521
   3174 H          14.6264   10.8721   10.7826 H     529  UNL529      0.2090
   3175 O          14.3407   11.7525   14.0029 O.3   530  UNL530     -0.3982
   3176 C          12.9249   11.7525   14.0029 C.3   530  UNL530      0.0330
   3177 H          12.5596   10.9835   14.6881 H     530  UNL530      0.0521
   3178 H          12.5597   11.5578   12.9916 H     530  UNL530      0.0521
   3179 H          12.5696   12.7311   14.3341 H     530  UNL530      0.0521
   3180 H          14.6264   10.8721   13.7049 H     530  UNL530      0.2090
   3181 O          14.3407   11.7525   16.9253 O.3   531  UNL531     -0.3982
   3182 C          12.9249   11.7525   16.9253 C.3   531  UNL531      0.0330
   3183 H          12.5596   10.9835   17.6105 H     531  UNL531      0.0521
   3184 H          12.5597   11.5578   15.9140 H     531  UNL531      0.0521
   3185 H          12.5696   12.7311   17.2565 H     531  UNL531      0.0521
   3186 H          14.6264   10.8721   16.6273 H     531  UNL531      0.2090
   3187 O          16.3407   11.4828   19.8852 O.3   532  UNL532     -0.3982
   3188 C          14.9249   11.4828   19.8852 C.3   532  UNL532      0.0330
   3189 H          14.5596   11.3940   18.8591 H     532  UNL532      0.0521
   3190 H          14.5597   12.4095   20.3344 H     532  UNL532      0.0521
   3191 H          14.5696   10.6318   20.4710 H     532  UNL532      0.0521
   3192 H          16.6264   12.2484   19.3582 H     532  UNL532      0.2090
   3193 O          16.3407   11.4828   22.8076 O.3   533  UNL533     -0.3982
   3194 C          14.9249   11.4828   22.8076 C.3   533  UNL533      0.0330
   3195 H          14.5596   11.3940   21.7814 H     533  UNL533      0.0521
   3196 H          14.5597   12.4095   23.2568 H     533  UNL533      0.0521
   3197 H          14.5696   10.6318   23.3934 H     533  UNL533      0.0521
   3198 H          16.6264   12.2484   22.2806 H     533  UNL533      0.2090
   3199 O          16.3407   11.4828   25.7300 O.3   534  UNL534     -0.3982
   3200 C          14.9249   11.4828   25.7300 C.3   534  UNL534      0.0330
   3201 H          14.5596   11.3940   24.7038 H     534  UNL534      0.0521
   3202 H          14.5597   12.4095   26.1792 H     534  UNL534      0.0521
   3203 H          14.5696   10.6318   26.3158 H     534  UNL534      0.0521
   3204 H          16.6264   12.2484   25.2030 H     534  UNL534      0.2090
   3205 O          16.3407   11.4828   28.6523 O.3   535  UNL535     -0.3982
   3206 C          14.9249   11.4828   28.6523 C.3   535  UNL535      0.0330
   3207 H          14.5596   11.3940   27.6262 H     535  UNL535      0.0521
   3208 H          14.5597   12.4095   29.1016 H     535  UNL535      0.0521
   3209 H          14.5696   10.6318   29.2381 H     535  UNL535      0.0521
   3210 H          16.6264   12.2484   28.1253 H     535  UNL535      0.2090
   3211 O          13.6508   13.8390    1.0127 O.3   536  UNL536     -0.3982
   3212 C          13.0824   14.8435    0.1926 C.3   536  UNL536      0.0330
   3213 H          12.3102   14.4027   -0.4427 H     536  UNL536      0.0521
   3214 H          13.8625   15.2960   -0.4244 H     536  UNL536      0.0521
   3215 H          12.6339   15.6100    0.8290 H     536  UNL536      0.0521
   3216 H          14.0407   13.1736    0.4205 H     536  UNL536      0.2090
   3217 O          14.3407   14.7967    3.2358 O.3   537  UNL537     -0.3982
   3218 C          12.9249   14.7967    3.2358 C.3   537  UNL537      0.0330
   3219 H          12.5596   14.0277    3.9210 H     537  UNL537      0.0521
   3220 H          12.5597   14.6020    2.2245 H     537  UNL537      0.0521
   3221 H          12.5696   15.7753    3.5670 H     537  UNL537      0.0521
   3222 H          14.6264   13.9163    2.9378 H     537  UNL537      0.2090
   3223 O          14.3407   14.7967    6.1582 O.3   538  UNL538     -0.3982
   3224 C          12.9249   14.7967    6.1582 C.3   538  UNL538      0.0330
   3225 H          12.5596   14.0277    6.8434 H     538  UNL538      0.0521
   3226 H          12.5597   14.6020    5.1469 H     538  UNL538      0.0521
   3227 H          12.5696   15.7753    6.4894 H     538  UNL538      0.0521
   3228 H          14.6264   13.9163    5.8602 H     538  UNL538      0.2090
   3229 O          14.3407   14.7967    9.0806 O.3   539  UNL539     -0.3982
   3230 C          12.9249   14.7967    9.0806 C.3   539  UNL539      0.0330
   3231 H          12.5596   14.0277    9.7658 H     539  UNL539      0.0521
   3232 H          12.5597   14.6020    8.0693 H     539  UNL539      0.0521
   3233 H          12.5696   15.7753    9.4118 H     539  UNL539      0.0521
   3234 H          14.6264   13.9163    8.7826 H     539  UNL539      0.2090
   3235 O          14.3407   14.7967   12.0029 O.3   540  UNL540     -0.3982
   3236 C          12.9249   14.7967   12.0029 C.3   540  UNL540      0.0330
   3237 H          12.5596   14.0277   12.6881 H     540  UNL540      0.0521
   3238 H          12.5597   14.6020   10.9916 H     540  UNL540      0.0521
   3239 H          12.5696   15.7753   12.3341 H     540  UNL540      0.0521
   3240 H          14.6264   13.9163   11.7049 H     540  UNL540      0.2090
   3241 O          14.3407   14.7967   14.9253 O.3   541  UNL541     -0.3982
   3242 C          12.9249   14.7967   14.9253 C.3   541  UNL541      0.0330
   3243 H          12.5596   14.0277   15.6105 H     541  UNL541      0.0521
   3244 H          12.5597   14.6020   13.9140 H     541  UNL541      0.0521
   3245 H          12.5696   15.7753   15.2565 H     541  UNL541      0.0521
   3246 H          14.6264   13.9163   14.6273 H     541  UNL541      0.2090
   3247 O          14.3407   14.7967   19.8477 O.3   542  UNL542     -0.3982
   3248 C          12.9249   14.7967   19.8477 C.3   542  UNL542      0.0330
   3249 H          12.5596   14.0277   20.5329 H     542  UNL542      0.0521
   3250 H          12.5597   14.6020   18.8364 H     542  UNL542      0.0521
   3251 H          12.5696   15.7753   20.1789 H     542  UNL542      0.0521
   3252 H          14.6264   13.9163   19.5497 H     542  UNL542      0.2090
   3253 O          14.3407   14.7967   22.7701 O.3   543  UNL543     -0.3982
   3254 C          12.9249   14.7967   22.7701 C.3   543  UNL543      0.0330
   3255 H          12.5596   14.0277   23.4552 H     543  UNL543      0.0521
   3256 H          12.5597   14.6020   21.7588 H     543  UNL543      0.0521
   3257 H          12.5696   15.7753   23.1012 H     543  UNL543      0.0521
   3258 H          14.6264   13.9163   22.4720 H     543  UNL543      0.2090
   3259 O          14.3407   14.7967   25.6924 O.3   544  UNL544     -0.3982
   3260 C          12.9249   14.7967   25.6924 C.3   544  UNL544      0.0330
   3261 H          12.5596   14.0277   26.3776 H     544  UNL544      0.0521
   3262 H          12.5597   14.6020   24.6811 H     544  UNL544      0.0521
   3263 H          12.5696   15.7753   26.0236 H     544  UNL544      0.0521
   3264 H          14.6264   13.9163   25.3944 H     544  UNL544      0.2090
   3265 O          14.3407   14.7967   28.6148 O.3   545  UNL545     -0.3982
   3266 C          12.9249   14.7967   28.6148 C.3   545  UNL545      0.0330
   3267 H          12.5596   14.0277   29.3000 H     545  UNL545      0.0521
   3268 H          12.5597   14.6020   27.6035 H     545  UNL545      0.0521
   3269 H          12.5696   15.7753   28.9460 H     545  UNL545      0.0521
   3270 H          14.6264   13.9163   28.3168 H     545  UNL545      0.2090
   3271 O          14.3407   17.6495   -0.8026 O.3   546  UNL546     -0.3982
   3272 C          12.9249   17.6495   -0.8026 C.3   546  UNL546      0.0330
   3273 H          12.5596   18.6587   -0.5965 H     546  UNL546      0.0521
   3274 H          12.5597   16.9558   -0.0413 H     546  UNL546      0.0521
   3275 H          12.5696   17.3292   -1.7848 H     546  UNL546      0.0521
   3276 H          14.6264   17.9376    0.0811 H     546  UNL546      0.2090
   3277 O          14.3407   17.8410    2.3134 O.3   547  UNL547     -0.3982
   3278 C          12.9249   17.8410    2.3134 C.3   547  UNL547      0.0330
   3279 H          12.5596   17.0720    2.9986 H     547  UNL547      0.0521
   3280 H          12.5597   17.6463    1.3021 H     547  UNL547      0.0521
   3281 H          12.5696   18.8196    2.6446 H     547  UNL547      0.0521
   3282 H          14.6264   16.9606    2.0154 H     547  UNL547      0.2090
   3283 O          14.3407   17.8410    5.2358 O.3   548  UNL548     -0.3982
   3284 C          12.9249   17.8410    5.2358 C.3   548  UNL548      0.0330
   3285 H          12.5596   17.0720    5.9210 H     548  UNL548      0.0521
   3286 H          12.5597   17.6463    4.2245 H     548  UNL548      0.0521
   3287 H          12.5696   18.8196    5.5670 H     548  UNL548      0.0521
   3288 H          14.6264   16.9606    4.9378 H     548  UNL548      0.2090
   3289 O          14.3407   17.8410    8.1582 O.3   549  UNL549     -0.3982
   3290 C          12.9249   17.8410    8.1582 C.3   549  UNL549      0.0330
   3291 H          12.5596   17.0720    8.8434 H     549  UNL549      0.0521
   3292 H          12.5597   17.6463    7.1469 H     549  UNL549      0.0521
   3293 H          12.5696   18.8196    8.4894 H     549  UNL549      0.0521
   3294 H          14.6264   16.9606    7.8602 H     549  UNL549      0.2090
   3295 O          16.3407   17.5713   11.1181 O.3   550  UNL550     -0.3982
   3296 C          14.9249   17.5713   11.1181 C.3   550  UNL550      0.0330
   3297 H          14.5596   17.4825   10.0919 H     550  UNL550      0.0521
   3298 H          14.5597   18.4980   11.5673 H     550  UNL550      0.0521
   3299 H          14.5696   16.7203   11.7039 H     550  UNL550      0.0521
   3300 H          16.6264   18.3369   10.5911 H     550  UNL550      0.2090
   3301 O          16.2157   17.7160   13.8445 O.3   551  UNL551     -0.3982
   3302 C          14.7999   17.7160   13.8445 C.3   551  UNL551      0.0330
   3303 H          14.4346   18.7137   13.5889 H     551  UNL551      0.0521
   3304 H          14.4347   17.4246   14.8323 H     551  UNL551      0.0521
   3305 H          14.4446   16.9987   13.1010 H     551  UNL551      0.0521
   3306 H          16.5014   18.3613   14.5135 H     551  UNL551      0.2090
   3307 O          15.3292   17.1200   17.7966 O.3   552  UNL552     -0.3982
   3308 C          15.4040   17.9676   16.6651 C.3   552  UNL552      0.0330
   3309 H          14.4847   18.5533   16.5860 H     552  UNL552      0.0521
   3310 H          15.5424   17.3638   15.7649 H     552  UNL552      0.0521
   3311 H          16.2547   18.6429   16.7825 H     552  UNL552      0.0521
   3312 H          14.5657   16.5327   17.6637 H     552  UNL552      0.2090
   3313 O          14.3407   17.8410   19.8477 O.3   553  UNL553     -0.3982
   3314 C          12.9249   17.8410   19.8477 C.3   553  UNL553      0.0330
   3315 H          12.5596   17.0720   20.5329 H     553  UNL553      0.0521
   3316 H          12.5597   17.6463   18.8364 H     553  UNL553      0.0521
   3317 H          12.5696   18.8196   20.1789 H     553  UNL553      0.0521
   3318 H          14.6264   16.9606   19.5497 H     553  UNL553      0.2090
   3319 O          14.3407   17.8410   22.7701 O.3   554  UNL554     -0.3982
   3320 C          12.9249   17.8410   22.7701 C.3   554  UNL554      0.0330
   3321 H          12.5596   17.0720   23.4552 H     554  UNL554      0.0521
   3322 H          12.5597   17.6463   21.7588 H     554  UNL554      0.0521
   3323 H          12.5696   18.8196   23.1012 H     554  UNL554      0.0521
   3324 H          14.6264   16.9606   22.4720 H     554  UNL554      0.2090
   3325 O          14.3407   17.8410   25.6924 O.3   555  UNL555     -0.3982
   3326 C          12.9249   17.8410   25.6924 C.3   555  UNL555      0.0330
   3327 H          12.5596   17.0720   26.3776 H     555  UNL555      0.0521
   3328 H          12.5597   17.6463   24.6811 H     555  UNL555      0.0521
   3329 H          12.5696   18.8196   26.0236 H     555  UNL555      0.0521
   3330 H          14.6264   16.9606   25.3944 H     555  UNL555      0.2090
   3331 O          14.3407   17.8410   28.6148 O.3   556  UNL556     -0.3982
   3332 C          12.9249   17.8410   28.6148 C.3   556  UNL556      0.0330
   3333 H          12.5596   17.0720   29.3000 H     556  UNL556      0.0521
   3334 H          12.5597   17.6463   27.6035 H     556  UNL556      0.0521
   3335 H          12.5696   18.8196   28.9460 H     556  UNL556      0.0521
   3336 H          14.6264   16.9606   28.3168 H     556  UNL556      0.2090
   3337 O          14.3407   20.8852   -0.6090 O.3   557  UNL557     -0.3982
   3338 C          12.9249   20.8852   -0.6090 C.3   557  UNL557      0.0330
   3339 H          12.5596   20.1162    0.0762 H     557  UNL557      0.0521
   3340 H          12.5597   20.6905   -1.6203 H     557  UNL557      0.0521
   3341 H          12.5696   21.8638   -0.2778 H     557  UNL557      0.0521
   3342 H          14.6264   20.0048   -0.9070 H     557  UNL557      0.2090
   3343 O          16.3407   20.6155    2.3510 O.3   558  UNL558     -0.3982
   3344 C          14.9249   20.6155    2.3510 C.3   558  UNL558      0.0330
   3345 H          14.5596   20.5268    1.3248 H     558  UNL558      0.0521
   3346 H          14.5597   21.5422    2.8002 H     558  UNL558      0.0521
   3347 H          14.5696   19.7645    2.9368 H     558  UNL558      0.0521
   3348 H          16.6264   21.3812    1.8240 H     558  UNL558      0.2090
   3349 O          16.3407   20.6155    5.2733 O.3   559  UNL559     -0.3982
   3350 C          14.9249   20.6155    5.2733 C.3   559  UNL559      0.0330
   3351 H          14.5596   20.5268    4.2472 H     559  UNL559      0.0521
   3352 H          14.5597   21.5422    5.7226 H     559  UNL559      0.0521
   3353 H          14.5696   19.7645    5.8591 H     559  UNL559      0.0521
   3354 H          16.6264   21.3812    4.7463 H     559  UNL559      0.2090
   3355 O          15.7496   21.0582    9.0295 O.3   560  UNL560     -0.3982
   3356 C          14.9583   20.7452    7.8979 C.3   560  UNL560      0.0330
   3357 H          14.8466   19.6609    7.8189 H     560  UNL560      0.0521
   3358 H          15.4361   21.1396    6.9978 H     560  UNL560      0.0521
   3359 H          13.9734   21.2032    8.0154 H     560  UNL560      0.0521
   3360 H          16.6167   20.6387    8.8966 H     560  UNL560      0.2090
   3361 O          16.3407   20.6937   10.8870 O.3   561  UNL561     -0.3982
   3362 C          14.9249   20.6937   10.8870 C.3   561  UNL561      0.0330
   3363 H          14.5596   21.7029   11.0930 H     561  UNL561      0.0521
   3364 H          14.5597   20.0001   11.6482 H     561  UNL561      0.0521
   3365 H          14.5696   20.3734    9.9047 H     561  UNL561      0.0521
   3366 H          16.6264   20.9819   11.7706 H     561  UNL561      0.2090
   3367 O          16.3407   20.8852   14.0029 O.3   562  UNL562     -0.3982
   3368 C          14.9249   20.8852   14.0029 C.3   562  UNL562      0.0330
   3369 H          14.5596   20.1162   14.6881 H     562  UNL562      0.0521
   3370 H          14.5597   20.6905   12.9916 H     562  UNL562      0.0521
   3371 H          14.5696   21.8638   14.3341 H     562  UNL562      0.0521
   3372 H          16.6264   20.0048   13.7049 H     562  UNL562      0.2090
   3373 O          14.3407   20.6937   16.7317 O.3   563  UNL563     -0.3982
   3374 C          12.9249   20.6937   16.7317 C.3   563  UNL563      0.0330
   3375 H          12.5596   21.7029   16.9377 H     563  UNL563      0.0521
   3376 H          12.5597   20.0001   17.4929 H     563  UNL563      0.0521
   3377 H          12.5696   20.3734   15.7495 H     563  UNL563      0.0521
   3378 H          14.6264   20.9819   17.6154 H     563  UNL563      0.2090
   3379 O          14.3407   20.8852   19.8477 O.3   564  UNL564     -0.3982
   3380 C          12.9249   20.8852   19.8477 C.3   564  UNL564      0.0330
   3381 H          12.5596   20.1162   20.5329 H     564  UNL564      0.0521
   3382 H          12.5597   20.6905   18.8364 H     564  UNL564      0.0521
   3383 H          12.5696   21.8638   20.1789 H     564  UNL564      0.0521
   3384 H          14.6264   20.0048   19.5497 H     564  UNL564      0.2090
   3385 O          16.3407   20.6155   22.8076 O.3   565  UNL565     -0.3982
   3386 C          14.9249   20.6155   22.8076 C.3   565  UNL565      0.0330
   3387 H          14.5596   20.5268   21.7814 H     565  UNL565      0.0521
   3388 H          14.5597   21.5422   23.2568 H     565  UNL565      0.0521
   3389 H          14.5696   19.7645   23.3934 H     565  UNL565      0.0521
   3390 H          16.6264   21.3812   22.2806 H     565  UNL565      0.2090
   3391 O          16.3407   20.6155   25.7300 O.3   566  UNL566     -0.3982
   3392 C          14.9249   20.6155   25.7300 C.3   566  UNL566      0.0330
   3393 H          14.5596   20.5268   24.7038 H     566  UNL566      0.0521
   3394 H          14.5597   21.5422   26.1792 H     566  UNL566      0.0521
   3395 H          14.5696   19.7645   26.3158 H     566  UNL566      0.0521
   3396 H          16.6264   21.3812   25.2030 H     566  UNL566      0.2090
   3397 O          16.2157   20.8056   28.7039 O.3   567  UNL567     -0.3982
   3398 C          14.7999   20.8056   28.7039 C.3   567  UNL567      0.0330
   3399 H          14.4346   19.7788   28.6233 H     567  UNL567      0.0521
   3400 H          14.4347   21.4006   27.8633 H     567  UNL567      0.0521
   3401 H          14.4446   21.2441   29.6393 H     567  UNL567      0.0521
   3402 H          16.5014   20.4111   27.8623 H     567  UNL567      0.2090
   3403 O          15.3125   23.2068    0.2623 O.3   568  UNL568     -0.3982
   3404 C          15.4118   24.0519   -0.8692 C.3   568  UNL568      0.0330
   3405 H          14.5099   24.6640   -0.9482 H     568  UNL568      0.0521
   3406 H          15.5326   23.4443   -1.7693 H     568  UNL568      0.0521
   3407 H          16.2817   24.7023   -0.7517 H     568  UNL568      0.0521
   3408 H          14.5322   22.6420    0.1295 H     568  UNL568      0.2090
   3409 O          16.3407   23.9203    2.1943 O.3   569  UNL569     -0.3982
   3410 C          14.9249   23.9203    2.1943 C.3   569  UNL569      0.0330
   3411 H          14.5596   23.8824    3.2236 H     569  UNL569      0.0521
   3412 H          14.5597   23.0558    1.6347 H     569  UNL569      0.0521
   3413 H          14.5696   24.8368    1.7174 H     569  UNL569      0.0521
   3414 H          16.6264   23.0958    2.6233 H     569  UNL569      0.2090
   3415 O          14.3407   23.9295    5.2358 O.3   570  UNL570     -0.3982
   3416 C          12.9249   23.9295    5.2358 C.3   570  UNL570      0.0330
   3417 H          12.5596   23.1605    5.9210 H     570  UNL570      0.0521
   3418 H          12.5597   23.7348    4.2245 H     570  UNL570      0.0521
   3419 H          12.5696   24.9081    5.5670 H     570  UNL570      0.0521
   3420 H          14.6264   23.0491    4.9378 H     570  UNL570      0.2090
   3421 O          14.3407   23.9295    8.1582 O.3   571  UNL571     -0.3982
   3422 C          12.9249   23.9295    8.1582 C.3   571  UNL571      0.0330
   3423 H          12.5596   23.1605    8.8434 H     571  UNL571      0.0521
   3424 H          12.5597   23.7348    7.1469 H     571  UNL571      0.0521
   3425 H          12.5696   24.9081    8.4894 H     571  UNL571      0.0521
   3426 H          14.6264   23.0491    7.8602 H     571  UNL571      0.2090
   3427 O          16.3407   23.7380   10.8870 O.3   572  UNL572     -0.3982
   3428 C          14.9249   23.7380   10.8870 C.3   572  UNL572      0.0330
   3429 H          14.5596   24.7472   11.0930 H     572  UNL572      0.0521
   3430 H          14.5597   23.0443   11.6482 H     572  UNL572      0.0521
   3431 H          14.5696   23.4177    9.9047 H     572  UNL572      0.0521
   3432 H          16.6264   24.0261   11.7706 H     572  UNL572      0.2090
   3433 O          16.3407   23.9295   14.0029 O.3   573  UNL573     -0.3982
   3434 C          14.9249   23.9295   14.0029 C.3   573  UNL573      0.0330
   3435 H          14.5596   23.1605   14.6881 H     573  UNL573      0.0521
   3436 H          14.5597   23.7348   12.9916 H     573  UNL573      0.0521
   3437 H          14.5696   24.9081   14.3341 H     573  UNL573      0.0521
   3438 H          16.6264   23.0491   13.7049 H     573  UNL573      0.2090
   3439 O          14.8618   23.2477   17.6078 O.3   574  UNL574     -0.3982
   3440 C          15.5124   23.7961   16.4763 C.3   574  UNL574      0.0330
   3441 H          15.9440   24.7656   16.7373 H     574  UNL574      0.0521
   3442 H          14.7928   23.9129   15.6622 H     574  UNL574      0.0521
   3443 H          16.3089   23.1181   16.1610 H     574  UNL574      0.0521
   3444 H          14.1607   23.8708   17.8643 H     574  UNL574      0.2090
   3445 O          14.3407   23.9295   19.8477 O.3   575  UNL575     -0.3982
   3446 C          12.9249   23.9295   19.8477 C.3   575  UNL575      0.0330
   3447 H          12.5596   23.1605   20.5329 H     575  UNL575      0.0521
   3448 H          12.5597   23.7348   18.8364 H     575  UNL575      0.0521
   3449 H          12.5696   24.9081   20.1789 H     575  UNL575      0.0521
   3450 H          14.6264   23.0491   19.5497 H     575  UNL575      0.2090
   3451 O          14.3407   23.9295   22.7701 O.3   576  UNL576     -0.3982
   3452 C          12.9249   23.9295   22.7701 C.3   576  UNL576      0.0330
   3453 H          12.5596   23.1605   23.4552 H     576  UNL576      0.0521
   3454 H          12.5597   23.7348   21.7588 H     576  UNL576      0.0521
   3455 H          12.5696   24.9081   23.1012 H     576  UNL576      0.0521
   3456 H          14.6264   23.0491   22.4720 H     576  UNL576      0.2090
   3457 O          14.3407   23.9295   25.6924 O.3   577  UNL577     -0.3982
   3458 C          12.9249   23.9295   25.6924 C.3   577  UNL577      0.0330
   3459 H          12.5596   23.1605   26.3776 H     577  UNL577      0.0521
   3460 H          12.5597   23.7348   24.6811 H     577  UNL577      0.0521
   3461 H          12.5696   24.9081   26.0236 H     577  UNL577      0.0521
   3462 H          14.6264   23.0491   25.3944 H     577  UNL577      0.2090
   3463 O          14.3407   23.9295   28.6148 O.3   578  UNL578     -0.3982
   3464 C          12.9249   23.9295   28.6148 C.3   578  UNL578      0.0330
   3465 H          12.5596   23.1605   29.3000 H     578  UNL578      0.0521
   3466 H          12.5597   23.7348   27.6035 H     578  UNL578      0.0521
   3467 H          12.5696   24.9081   28.9460 H     578  UNL578      0.0521
   3468 H          14.6264   23.0491   28.3168 H     578  UNL578      0.2090
   3469 O          14.3407   26.9737   -0.6090 O.3   579  UNL579     -0.3982
   3470 C          12.9249   26.9737   -0.6090 C.3   579  UNL579      0.0330
   3471 H          12.5596   26.2047    0.0762 H     579  UNL579      0.0521
   3472 H          12.5597   26.7790   -1.6203 H     579  UNL579      0.0521
   3473 H          12.5696   27.9523   -0.2778 H     579  UNL579      0.0521
   3474 H          14.6264   26.0933   -0.9070 H     579  UNL579      0.2090
   3475 O          16.3407   26.9737    2.3134 O.3   580  UNL580     -0.3982
   3476 C          14.9249   26.9737    2.3134 C.3   580  UNL580      0.0330
   3477 H          14.5596   26.2047    2.9986 H     580  UNL580      0.0521
   3478 H          14.5597   26.7790    1.3021 H     580  UNL580      0.0521
   3479 H          14.5696   27.9523    2.6446 H     580  UNL580      0.0521
   3480 H          16.6264   26.0933    2.0154 H     580  UNL580      0.2090
   3481 O          15.4698   27.4680    6.0433 O.3   581  UNL581     -0.3982
   3482 C          15.0314   26.7387    4.9118 C.3   581  UNL581      0.0330
   3483 H          14.9363   25.6817    5.1728 H     581  UNL581      0.0521
   3484 H          15.7501   26.8607    4.0977 H     581  UNL581      0.0521
   3485 H          14.0585   27.1229    4.5965 H     581  UNL581      0.0521
   3486 H          16.3346   27.1049    6.2998 H     581  UNL581      0.2090
   3487 O          16.3407   26.7040    8.1957 O.3   582  UNL582     -0.3982
   3488 C          14.9249   26.7040    8.1957 C.3   582  UNL582      0.0330
   3489 H          14.5596   26.6153    7.1696 H     582  UNL582      0.0521
   3490 H          14.5597   27.6308    8.6449 H     582  UNL582      0.0521
   3491 H          14.5696   25.8530    8.7815 H     582  UNL582      0.0521
   3492 H          16.6264   27.4697    7.6687 H     582  UNL582      0.2090
   3493 O          16.3407   26.9737   11.0806 O.3   583  UNL583     -0.3982
   3494 C          14.9249   26.9737   11.0806 C.3   583  UNL583      0.0330
   3495 H          14.5596   26.2047   11.7658 H     583  UNL583      0.0521
   3496 H          14.5597   26.7790   10.0693 H     583  UNL583      0.0521
   3497 H          14.5696   27.9523   11.4118 H     583  UNL583      0.0521
   3498 H          16.6264   26.0933   10.7826 H     583  UNL583      0.2090
   3499 O          16.3407   26.9737   14.0029 O.3   584  UNL584     -0.3982
   3500 C          14.9249   26.9737   14.0029 C.3   584  UNL584      0.0330
   3501 H          14.5596   26.2047   14.6881 H     584  UNL584      0.0521
   3502 H          14.5597   26.7790   12.9916 H     584  UNL584      0.0521
   3503 H          14.5696   27.9523   14.3341 H     584  UNL584      0.0521
   3504 H          16.6264   26.0933   13.7049 H     584  UNL584      0.2090
   3505 O          16.3407   26.9737   16.9253 O.3   585  UNL585     -0.3982
   3506 C          14.9249   26.9737   16.9253 C.3   585  UNL585      0.0330
   3507 H          14.5596   26.2047   17.6105 H     585  UNL585      0.0521
   3508 H          14.5597   26.7790   15.9140 H     585  UNL585      0.0521
   3509 H          14.5696   27.9523   17.2565 H     585  UNL585      0.0521
   3510 H          16.6264   26.0933   16.6273 H     585  UNL585      0.2090
   3511 O          14.3407   26.9737   19.8477 O.3   586  UNL586     -0.3982
   3512 C          12.9249   26.9737   19.8477 C.3   586  UNL586      0.0330
   3513 H          12.5596   26.2047   20.5329 H     586  UNL586      0.0521
   3514 H          12.5597   26.7790   18.8364 H     586  UNL586      0.0521
   3515 H          12.5696   27.9523   20.1789 H     586  UNL586      0.0521
   3516 H          14.6264   26.0933   19.5497 H     586  UNL586      0.2090
   3517 O          16.2157   27.0191   22.8591 O.3   587  UNL587     -0.3982
   3518 C          14.7999   27.0191   22.8591 C.3   587  UNL587      0.0330
   3519 H          14.4346   25.9923   22.7786 H     587  UNL587      0.0521
   3520 H          14.4347   27.6141   22.0185 H     587  UNL587      0.0521
   3521 H          14.4446   27.4576   23.7946 H     587  UNL587      0.0521
   3522 H          16.5014   26.6246   22.0175 H     587  UNL587      0.2090
   3523 O          15.7496   27.7891   25.4814 O.3   588  UNL588     -0.3982
   3524 C          14.9583   26.6216   25.6048 C.3   588  UNL588      0.0330
   3525 H          14.8466   26.3660   26.6615 H     588  UNL588      0.0521
   3526 H          15.4361   25.7982   25.0683 H     588  UNL588      0.0521
   3527 H          13.9734   26.8125   25.1723 H     588  UNL588      0.0521
   3528 H          16.6167   27.5893   25.8734 H     588  UNL588      0.2090
   3529 O          16.2157   27.0453   28.4437 O.3   589  UNL589     -0.3982
   3530 C          14.7999   27.0453   28.4437 C.3   589  UNL589      0.0330
   3531 H          14.4346   27.4609   29.3861 H     589  UNL589      0.0521
   3532 H          14.4347   26.0231   28.3181 H     589  UNL589      0.0521
   3533 H          14.4446   27.6613   27.6143 H     589  UNL589      0.0521
   3534 H          16.5014   26.4910   29.1899 H     589  UNL589      0.2090
   3535 O          14.3407   30.0180   -0.6090 O.3   590  UNL590     -0.3982
   3536 C          12.9249   30.0180   -0.6090 C.3   590  UNL590      0.0330
   3537 H          12.5596   29.2490    0.0762 H     590  UNL590      0.0521
   3538 H          12.5597   29.8233   -1.6203 H     590  UNL590      0.0521
   3539 H          12.5696   30.9966   -0.2778 H     590  UNL590      0.0521
   3540 H          14.6264   29.1376   -0.9070 H     590  UNL590      0.2090
   3541 O          14.3407   30.0180    2.3134 O.3   591  UNL591     -0.3982
   3542 C          12.9249   30.0180    2.3134 C.3   591  UNL591      0.0330
   3543 H          12.5596   29.2490    2.9986 H     591  UNL591      0.0521
   3544 H          12.5597   29.8233    1.3021 H     591  UNL591      0.0521
   3545 H          12.5696   30.9966    2.6446 H     591  UNL591      0.0521
   3546 H          14.6264   29.1376    2.0154 H     591  UNL591      0.2090
   3547 O          14.3407   30.0088    5.1167 O.3   592  UNL592     -0.3982
   3548 C          12.9249   30.0088    5.1167 C.3   592  UNL592      0.0330
   3549 H          12.5596   29.9709    6.1460 H     592  UNL592      0.0521
   3550 H          12.5597   29.1443    4.5571 H     592  UNL592      0.0521
   3551 H          12.5696   30.9253    4.6398 H     592  UNL592      0.0521
   3552 H          14.6264   29.1843    5.5457 H     592  UNL592      0.2090
   3553 O          16.3407   30.0088    8.0391 O.3   593  UNL593     -0.3982
   3554 C          14.9249   30.0088    8.0391 C.3   593  UNL593      0.0330
   3555 H          14.5596   29.9709    9.0683 H     593  UNL593      0.0521
   3556 H          14.5597   29.1443    7.4794 H     593  UNL593      0.0521
   3557 H          14.5696   30.9253    7.5622 H     593  UNL593      0.0521
   3558 H          16.6264   29.1843    8.4681 H     593  UNL593      0.2090
   3559 O          14.3407   30.0180   11.0806 O.3   594  UNL594     -0.3982
   3560 C          12.9249   30.0180   11.0806 C.3   594  UNL594      0.0330
   3561 H          12.5596   29.2490   11.7658 H     594  UNL594      0.0521
   3562 H          12.5597   29.8233   10.0693 H     594  UNL594      0.0521
   3563 H          12.5696   30.9966   11.4118 H     594  UNL594      0.0521
   3564 H          14.6264   29.1376   10.7826 H     594  UNL594      0.2090
   3565 O          14.3407   30.0180   14.0029 O.3   595  UNL595     -0.3982
   3566 C          12.9249   30.0180   14.0029 C.3   595  UNL595      0.0330
   3567 H          12.5596   29.2490   14.6881 H     595  UNL595      0.0521
   3568 H          12.5597   29.8233   12.9916 H     595  UNL595      0.0521
   3569 H          12.5696   30.9966   14.3341 H     595  UNL595      0.0521
   3570 H          14.6264   29.1376   13.7049 H     595  UNL595      0.2090
   3571 O          14.3407   30.0180   16.9253 O.3   596  UNL596     -0.3982
   3572 C          12.9249   30.0180   16.9253 C.3   596  UNL596      0.0330
   3573 H          12.5596   29.2490   17.6105 H     596  UNL596      0.0521
   3574 H          12.5597   29.8233   15.9140 H     596  UNL596      0.0521
   3575 H          12.5696   30.9966   17.2565 H     596  UNL596      0.0521
   3576 H          14.6264   29.1376   16.6273 H     596  UNL596      0.2090
   3577 O          14.3407   30.0180   19.8477 O.3   597  UNL597     -0.3982
   3578 C          12.9249   30.0180   19.8477 C.3   597  UNL597      0.0330
   3579 H          12.5596   29.2490   20.5329 H     597  UNL597      0.0521
   3580 H          12.5597   29.8233   18.8364 H     597  UNL597      0.0521
   3581 H          12.5696   30.9966   20.1789 H     597  UNL597      0.0521
   3582 H          14.6264   29.1376   19.5497 H     597  UNL597      0.2090
   3583 O          14.3407   30.0180   22.7701 O.3   598  UNL598     -0.3982
   3584 C          12.9249   30.0180   22.7701 C.3   598  UNL598      0.0330
   3585 H          12.5596   29.2490   23.4552 H     598  UNL598      0.0521
   3586 H          12.5597   29.8233   21.7588 H     598  UNL598      0.0521
   3587 H          12.5696   30.9966   23.1012 H     598  UNL598      0.0521
   3588 H          14.6264   29.1376   22.4720 H     598  UNL598      0.2090
   3589 O          14.3407   30.0180   25.6924 O.3   599  UNL599     -0.3982
   3590 C          12.9249   30.0180   25.6924 C.3   599  UNL599      0.0330
   3591 H          12.5596   29.2490   26.3776 H     599  UNL599      0.0521
   3592 H          12.5597   29.8233   24.6811 H     599  UNL599      0.0521
   3593 H          12.5696   30.9966   26.0236 H     599  UNL599      0.0521
   3594 H          14.6264   29.1376   25.3944 H     599  UNL599      0.2090
   3595 O          16.3407   29.8716   28.7183 O.3   600  UNL600     -0.3982
   3596 C          14.9249   29.8716   28.7183 C.3   600  UNL600      0.0330
   3597 H          14.5596   28.9832   28.1971 H     600  UNL600      0.0521
   3598 H          14.5597   30.7741   28.2221 H     600  UNL600      0.0521
   3599 H          14.5696   29.8573   29.7513 H     600  UNL600      0.0521
   3600 H          16.6264   29.8845   27.7889 H     600  UNL600      0.2090
   3601 O          19.2264    0.2366   -1.3537 O.3   601  UNL601     -0.3982
   3602 C          18.4352   -0.6347   -0.5668 C.3   601  UNL601      0.0330
   3603 H          18.3235   -0.2195    0.4379 H     601  UNL601      0.0521
   3604 H          18.9129   -1.6161   -0.5160 H     601  UNL601      0.0521
   3605 H          17.4502   -0.7349   -1.0289 H     601  UNL601      0.0521
   3606 H          20.0935    0.3058   -0.9191 H     601  UNL601      0.2090
   3607 O          19.4582   -0.7279    1.4628 O.3   602  UNL602     -0.3982
   3608 C          18.6670   -0.4148    2.5944 C.3   602  UNL602      0.0330
   3609 H          18.3703   -1.3376    3.0993 H     602  UNL602      0.0521
   3610 H          17.7810    0.1410    2.2780 H     602  UNL602      0.0521
   3611 H          19.2547    0.2002    3.2798 H     602  UNL602      0.0521
   3612 H          18.9105   -1.2737    0.8733 H     602  UNL602      0.2090
   3613 O          19.6925   -0.5041    5.3249 O.3   603  UNL603     -0.3982
   3614 C          18.2767   -0.5041    5.3249 C.3   603  UNL603      0.0330
   3615 H          17.9114   -1.5310    5.2443 H     603  UNL603      0.0521
   3616 H          17.9115    0.0908    4.4842 H     603  UNL603      0.0521
   3617 H          17.9214   -0.0657    6.2603 H     603  UNL603      0.0521
   3618 H          19.9782   -0.8986    4.4833 H     603  UNL603      0.2090
   3619 O          19.2264   -0.2515    9.0295 O.3   604  UNL604     -0.3982
   3620 C          18.4352   -0.5646    7.8979 C.3   604  UNL604      0.0330
   3621 H          18.3235   -1.6488    7.8189 H     604  UNL604      0.0521
   3622 H          18.9129   -0.1702    6.9978 H     604  UNL604      0.0521
   3623 H          17.4502   -0.1066    8.0154 H     604  UNL604      0.0521
   3624 H          20.0935   -0.6710    8.8966 H     604  UNL604      0.2090
   3625 O          19.8175   -0.4245   11.0806 O.3   605  UNL605     -0.3982
   3626 C          18.4017   -0.4245   11.0806 C.3   605  UNL605      0.0330
   3627 H          18.0364   -1.1935   11.7658 H     605  UNL605      0.0521
   3628 H          18.0365   -0.6192   10.0693 H     605  UNL605      0.0521
   3629 H          18.0464    0.5541   11.4118 H     605  UNL605      0.0521
   3630 H          20.1032   -1.3049   10.7826 H     605  UNL605      0.2090
   3631 O          17.8175   -0.4245   14.0029 O.3   606  UNL606     -0.3982
   3632 C          16.4017   -0.4245   14.0029 C.3   606  UNL606      0.0330
   3633 H          16.0364   -1.1935   14.6881 H     606  UNL606      0.0521
   3634 H          16.0365   -0.6192   12.9916 H     606  UNL606      0.0521
   3635 H          16.0464    0.5541   14.3341 H     606  UNL606      0.0521
   3636 H          18.1032   -1.3049   13.7049 H     606  UNL606      0.2090
   3637 O          19.4582   -0.1591   17.5838 O.3   607  UNL607     -0.3982
   3638 C          18.6670   -0.8210   16.6142 C.3   607  UNL607      0.0330
   3639 H          18.3703   -0.1110   15.8382 H     607  UNL607      0.0521
   3640 H          17.7810   -1.2448   17.0932 H     607  UNL607      0.0521
   3641 H          19.2547   -1.6246   16.1643 H     607  UNL607      0.0521
   3642 H          18.9105    0.5479   17.9653 H     607  UNL607      0.2090
   3643 O          19.8175   -0.5041   19.9367 O.3   608  UNL608     -0.3982
   3644 C          18.4017   -0.5041   19.9367 C.3   608  UNL608      0.0330
   3645 H          18.0364   -1.5310   19.8562 H     608  UNL608      0.0521
   3646 H          18.0365    0.0908   19.0961 H     608  UNL608      0.0521
   3647 H          18.0464   -0.0657   20.8722 H     608  UNL608      0.0521
   3648 H          20.1032   -0.8986   19.0951 H     608  UNL608      0.2090
   3649 O          17.8035   -0.1050   23.1586 O.3   609  UNL609     -0.3982
   3650 C          18.9895   -0.4102   22.4481 C.3   609  UNL609      0.0330
   3651 H          18.9651   -1.4549   22.1281 H     609  UNL609      0.0521
   3652 H          19.8556   -0.2350   23.0909 H     609  UNL609      0.0521
   3653 H          19.0538    0.2363   21.5697 H     609  UNL609      0.0521
   3654 H          17.7742   -0.6939   23.9319 H     609  UNL609      0.2090
   3655 O          19.4582    0.1961   25.3554 O.3   610  UNL610     -0.3982
   3656 C          18.6670   -0.8689   25.8495 C.3   610  UNL610      0.0330
   3657 H          18.3703   -1.5181   25.0219 H     610  UNL610      0.0521
   3658 H          17.7810   -0.4658   26.3460 H     610  UNL610      0.0521
   3659 H          19.2547   -1.4443   26.5685 H     610  UNL610      0.0521
   3660 H          18.9105    0.6883   24.7203 H     610  UNL610      0.2090
   3661 O          19.8175   -0.6745   28.4564 O.3   611  UNL611     -0.3982
   3662 C          18.4017   -0.6745   28.4564 C.3   611  UNL611      0.0330
   3663 H          18.0364    0.3232   28.2008 H     611  UNL611      0.0521
   3664 H          18.0365   -0.9659   29.4442 H     611  UNL611      0.0521
   3665 H          18.0464   -1.3918   27.7128 H     611  UNL611      0.0521
   3666 H          20.1032   -0.0292   29.1253 H     611  UNL611      0.2090
   3667 O          17.8175    2.6197   -0.6090 O.3   612  UNL612     -0.3982
   3668 C          16.4017    2.6197   -0.6090 C.3   612  UNL612      0.0330
   3669 H          16.0364    1.8507    0.0762 H     612  UNL612      0.0521
   3670 H          16.0365    2.4250   -1.6203 H     612  UNL612      0.0521
   3671 H          16.0464    3.5983   -0.2778 H     612  UNL612      0.0521
   3672 H          18.1032    1.7393   -0.9070 H     612  UNL612      0.2090
   3673 O          17.8175    2.6197    2.3134 O.3   613  UNL613     -0.3982
   3674 C          16.4017    2.6197    2.3134 C.3   613  UNL613      0.0330
   3675 H          16.0364    1.8507    2.9986 H     613  UNL613      0.0521
   3676 H          16.0365    2.4250    1.3021 H     613  UNL613      0.0521
   3677 H          16.0464    3.5983    2.6446 H     613  UNL613      0.0521
   3678 H          18.1032    1.7393    2.0154 H     613  UNL613      0.2090
   3679 O          17.8175    2.6197    5.2358 O.3   614  UNL614     -0.3982
   3680 C          16.4017    2.6197    5.2358 C.3   614  UNL614      0.0330
   3681 H          16.0364    1.8507    5.9210 H     614  UNL614      0.0521
   3682 H          16.0365    2.4250    4.2245 H     614  UNL614      0.0521
   3683 H          16.0464    3.5983    5.5670 H     614  UNL614      0.0521
   3684 H          18.1032    1.7393    4.9378 H     614  UNL614      0.2090
   3685 O          17.8175    2.6197    8.1582 O.3   615  UNL615     -0.3982
   3686 C          16.4017    2.6197    8.1582 C.3   615  UNL615      0.0330
   3687 H          16.0364    1.8507    8.8434 H     615  UNL615      0.0521
   3688 H          16.0365    2.4250    7.1469 H     615  UNL615      0.0521
   3689 H          16.0464    3.5983    8.4894 H     615  UNL615      0.0521
   3690 H          18.1032    1.7393    7.8602 H     615  UNL615      0.2090
   3691 O          19.8175    2.6197   11.0806 O.3   616  UNL616     -0.3982
   3692 C          18.4017    2.6197   11.0806 C.3   616  UNL616      0.0330
   3693 H          18.0364    1.8507   11.7658 H     616  UNL616      0.0521
   3694 H          18.0365    2.4250   10.0693 H     616  UNL616      0.0521
   3695 H          18.0464    3.5983   11.4118 H     616  UNL616      0.0521
   3696 H          20.1032    1.7393   10.7826 H     616  UNL616      0.2090
   3697 O          17.8175    2.6197   14.0029 O.3   617  UNL617     -0.3982
   3698 C          16.4017    2.6197   14.0029 C.3   617  UNL617      0.0330
   3699 H          16.0364    1.8507   14.6881 H     617  UNL617      0.0521
   3700 H          16.0365    2.4250   12.9916 H     617  UNL617      0.0521
   3701 H          16.0464    3.5983   14.3341 H     617  UNL617      0.0521
   3702 H          18.1032    1.7393   13.7049 H     617  UNL617      0.2090
   3703 O          17.8175    2.6197   16.9253 O.3   618  UNL618     -0.3982
   3704 C          16.4017    2.6197   16.9253 C.3   618  UNL618      0.0330
   3705 H          16.0364    1.8507   17.6105 H     618  UNL618      0.0521
   3706 H          16.0365    2.4250   15.9140 H     618  UNL618      0.0521
   3707 H          16.0464    3.5983   17.2565 H     618  UNL618      0.0521
   3708 H          18.1032    1.7393   16.6273 H     618  UNL618      0.2090
   3709 O          17.8175    2.6197   19.8477 O.3   619  UNL619     -0.3982
   3710 C          16.4017    2.6197   19.8477 C.3   619  UNL619      0.0330
   3711 H          16.0364    1.8507   20.5329 H     619  UNL619      0.0521
   3712 H          16.0365    2.4250   18.8364 H     619  UNL619      0.0521
   3713 H          16.0464    3.5983   20.1789 H     619  UNL619      0.0521
   3714 H          18.1032    1.7393   19.5497 H     619  UNL619      0.2090
   3715 O          17.8175    2.6197   22.7701 O.3   620  UNL620     -0.3982
   3716 C          16.4017    2.6197   22.7701 C.3   620  UNL620      0.0330
   3717 H          16.0364    1.8507   23.4552 H     620  UNL620      0.0521
   3718 H          16.0365    2.4250   21.7588 H     620  UNL620      0.0521
   3719 H          16.0464    3.5983   23.1012 H     620  UNL620      0.0521
   3720 H          18.1032    1.7393   22.4720 H     620  UNL620      0.2090
   3721 O          17.8175    2.6197   25.6924 O.3   621  UNL621     -0.3982
   3722 C          16.4017    2.6197   25.6924 C.3   621  UNL621      0.0330
   3723 H          16.0364    1.8507   26.3776 H     621  UNL621      0.0521
   3724 H          16.0365    2.4250   24.6811 H     621  UNL621      0.0521
   3725 H          16.0464    3.5983   26.0236 H     621  UNL621      0.0521
   3726 H          18.1032    1.7393   25.3944 H     621  UNL621      0.2090
   3727 O          17.8175    2.6197   28.6148 O.3   622  UNL622     -0.3982
   3728 C          16.4017    2.6197   28.6148 C.3   622  UNL622      0.0330
   3729 H          16.0364    1.8507   29.3000 H     622  UNL622      0.0521
   3730 H          16.0365    2.4250   27.6035 H     622  UNL622      0.0521
   3731 H          16.0464    3.5983   28.9460 H     622  UNL622      0.0521
   3732 H          18.1032    1.7393   28.3168 H     622  UNL622      0.2090
   3733 O          17.8175    5.6640   -0.6090 O.3   623  UNL623     -0.3982
   3734 C          16.4017    5.6640   -0.6090 C.3   623  UNL623      0.0330
   3735 H          16.0364    4.8950    0.0762 H     623  UNL623      0.0521
   3736 H          16.0365    5.4693   -1.6203 H     623  UNL623      0.0521
   3737 H          16.0464    6.6426   -0.2778 H     623  UNL623      0.0521
   3738 H          18.1032    4.7836   -0.9070 H     623  UNL623      0.2090
   3739 O          17.8175    5.6640    2.3134 O.3   624  UNL624     -0.3982
   3740 C          16.4017    5.6640    2.3134 C.3   624  UNL624      0.0330
   3741 H          16.0364    4.8950    2.9986 H     624  UNL624      0.0521
   3742 H          16.0365    5.4693    1.3021 H     624  UNL624      0.0521
   3743 H          16.0464    6.6426    2.6446 H     624  UNL624      0.0521
   3744 H          18.1032    4.7836    2.0154 H     624  UNL624      0.2090
   3745 O          17.8175    5.6640    5.2358 O.3   625  UNL625     -0.3982
   3746 C          16.4017    5.6640    5.2358 C.3   625  UNL625      0.0330
   3747 H          16.0364    4.8950    5.9210 H     625  UNL625      0.0521
   3748 H          16.0365    5.4693    4.2245 H     625  UNL625      0.0521
   3749 H          16.0464    6.6426    5.5670 H     625  UNL625      0.0521
   3750 H          18.1032    4.7836    4.9378 H     625  UNL625      0.2090
   3751 O          18.1777    5.3766    8.9045 O.3   626  UNL626     -0.3982
   3752 C          19.0277    5.4171    7.7729 C.3   626  UNL626      0.0330
   3753 H          19.4838    6.4071    7.6939 H     626  UNL626      0.0521
   3754 H          18.4481    5.1983    6.8728 H     626  UNL626      0.0521
   3755 H          19.8117    4.6654    7.8904 H     626  UNL626      0.0521
   3756 H          17.4927    6.0538    8.7716 H     626  UNL626      0.2090
   3757 O          17.8175    5.6640   11.0806 O.3   627  UNL627     -0.3982
   3758 C          16.4017    5.6640   11.0806 C.3   627  UNL627      0.0330
   3759 H          16.0364    4.8950   11.7658 H     627  UNL627      0.0521
   3760 H          16.0365    5.4693   10.0693 H     627  UNL627      0.0521
   3761 H          16.0464    6.6426   11.4118 H     627  UNL627      0.0521
   3762 H          18.1032    4.7836   10.7826 H     627  UNL627      0.2090
   3763 O          18.9311    4.5176   13.4109 O.3   628  UNL628     -0.3982
   3764 C          19.0058    5.7727   14.0617 C.3   628  UNL628      0.0330
   3765 H          18.0865    5.9466   14.6265 H     628  UNL628      0.0521
   3766 H          19.1443    6.5617   13.3186 H     628  UNL628      0.0521
   3767 H          19.8565    5.7674   14.7472 H     628  UNL628      0.0521
   3768 H          18.1675    4.5524   12.8098 H     628  UNL628      0.2090
   3769 O          18.6320    6.0512   17.7966 O.3   629  UNL629     -0.3982
   3770 C          18.8111    5.2194   16.6651 C.3   629  UNL629      0.0330
   3771 H          19.8624    4.9316   16.5860 H     629  UNL629      0.0521
   3772 H          18.5004    5.7553   15.7649 H     629  UNL629      0.0521
   3773 H          18.1980    4.3228   16.7825 H     629  UNL629      0.0521
   3774 H          19.1878    6.8379   17.6637 H     629  UNL629      0.2090
   3775 O          19.6925    5.5193   19.8852 O.3   630  UNL630     -0.3982
   3776 C          18.2767    5.5193   19.8852 C.3   630  UNL630      0.0330
   3777 H          17.9114    5.4305   18.8591 H     630  UNL630      0.0521
   3778 H          17.9115    6.4460   20.3344 H     630  UNL630      0.0521
   3779 H          17.9214    4.6683   20.4710 H     630  UNL630      0.0521
   3780 H          19.9782    6.2849   19.3582 H     630  UNL630      0.2090
   3781 O          18.5070    6.0512   23.6414 O.3   631  UNL631     -0.3982
   3782 C          18.6861    5.2194   22.5098 C.3   631  UNL631      0.0330
   3783 H          19.7374    4.9316   22.4308 H     631  UNL631      0.0521
   3784 H          18.3754    5.7553   21.6097 H     631  UNL631      0.0521
   3785 H          18.0730    4.3228   22.6273 H     631  UNL631      0.0521
   3786 H          19.0628    6.8379   23.5085 H     631  UNL631      0.2090
   3787 O          19.6925    5.4140   25.5340 O.3   632  UNL632     -0.3982
   3788 C          18.2767    5.4140   25.5340 C.3   632  UNL632      0.0330
   3789 H          17.9114    6.4117   25.2784 H     632  UNL632      0.0521
   3790 H          17.9115    5.1226   26.5218 H     632  UNL632      0.0521
   3791 H          17.9214    4.6967   24.7905 H     632  UNL632      0.0521
   3792 H          19.9782    6.0593   26.2030 H     632  UNL632      0.2090
   3793 O          18.7893    4.9413   29.4861 O.3   633  UNL633     -0.3982
   3794 C          18.8886    5.7864   28.3546 C.3   633  UNL633      0.0330
   3795 H          17.9867    6.3985   28.2755 H     633  UNL633      0.0521
   3796 H          19.0095    5.1788   27.4544 H     633  UNL633      0.0521
   3797 H          19.7586    6.4368   28.4720 H     633  UNL633      0.0521
   3798 H          18.0090    4.3765   29.3532 H     633  UNL633      0.2090
   3799 O          17.8175    8.7082   -0.6090 O.3   634  UNL634     -0.3982
   3800 C          16.4017    8.7082   -0.6090 C.3   634  UNL634      0.0330
   3801 H          16.0364    7.9392    0.0762 H     634  UNL634      0.0521
   3802 H          16.0365    8.5135   -1.6203 H     634  UNL634      0.0521
   3803 H          16.0464    9.6868   -0.2778 H     634  UNL634      0.0521
   3804 H          18.1032    7.8278   -0.9070 H     634  UNL634      0.2090
   3805 O          17.8175    8.7082    2.3134 O.3   635  UNL635     -0.3982
   3806 C          16.4017    8.7082    2.3134 C.3   635  UNL635      0.0330
   3807 H          16.0364    7.9392    2.9986 H     635  UNL635      0.0521
   3808 H          16.0365    8.5135    1.3021 H     635  UNL635      0.0521
   3809 H          16.0464    9.6868    2.6446 H     635  UNL635      0.0521
   3810 H          18.1032    7.8278    2.0154 H     635  UNL635      0.2090
   3811 O          17.8175    8.7082    5.2358 O.3   636  UNL636     -0.3982
   3812 C          16.4017    8.7082    5.2358 C.3   636  UNL636      0.0330
   3813 H          16.0364    7.9392    5.9210 H     636  UNL636      0.0521
   3814 H          16.0365    8.5135    4.2245 H     636  UNL636      0.0521
   3815 H          16.0464    9.6868    5.5670 H     636  UNL636      0.0521
   3816 H          18.1032    7.8278    4.9378 H     636  UNL636      0.2090
   3817 O          17.8175    8.7082    8.1582 O.3   637  UNL637     -0.3982
   3818 C          16.4017    8.7082    8.1582 C.3   637  UNL637      0.0330
   3819 H          16.0364    7.9392    8.8434 H     637  UNL637      0.0521
   3820 H          16.0365    8.5135    7.1469 H     637  UNL637      0.0521
   3821 H          16.0464    9.6868    8.4894 H     637  UNL637      0.0521
   3822 H          18.1032    7.8278    7.8602 H     637  UNL637      0.2090
   3823 O          17.8175    8.7082   11.0806 O.3   638  UNL638     -0.3982
   3824 C          16.4017    8.7082   11.0806 C.3   638  UNL638      0.0330
   3825 H          16.0364    7.9392   11.7658 H     638  UNL638      0.0521
   3826 H          16.0365    8.5135   10.0693 H     638  UNL638      0.0521
   3827 H          16.0464    9.6868   11.4118 H     638  UNL638      0.0521
   3828 H          18.1032    7.8278   10.7826 H     638  UNL638      0.2090
   3829 O          17.8175    8.7082   14.0029 O.3   639  UNL639     -0.3982
   3830 C          16.4017    8.7082   14.0029 C.3   639  UNL639      0.0330
   3831 H          16.0364    7.9392   14.6881 H     639  UNL639      0.0521
   3832 H          16.0365    8.5135   12.9916 H     639  UNL639      0.0521
   3833 H          16.0464    9.6868   14.3341 H     639  UNL639      0.0521
   3834 H          18.1032    7.8278   13.7049 H     639  UNL639      0.2090
   3835 O          17.8175    8.7082   16.9253 O.3   640  UNL640     -0.3982
   3836 C          16.4017    8.7082   16.9253 C.3   640  UNL640      0.0330
   3837 H          16.0364    7.9392   17.6105 H     640  UNL640      0.0521
   3838 H          16.0365    8.5135   15.9140 H     640  UNL640      0.0521
   3839 H          16.0464    9.6868   17.2565 H     640  UNL640      0.0521
   3840 H          18.1032    7.8278   16.6273 H     640  UNL640      0.2090
   3841 O          17.8175    8.7082   19.8477 O.3   641  UNL641     -0.3982
   3842 C          16.4017    8.7082   19.8477 C.3   641  UNL641      0.0330
   3843 H          16.0364    7.9392   20.5329 H     641  UNL641      0.0521
   3844 H          16.0365    8.5135   18.8364 H     641  UNL641      0.0521
   3845 H          16.0464    9.6868   20.1789 H     641  UNL641      0.0521
   3846 H          18.1032    7.8278   19.5497 H     641  UNL641      0.2090
   3847 O          17.8175    8.7082   22.7701 O.3   642  UNL642     -0.3982
   3848 C          16.4017    8.7082   22.7701 C.3   642  UNL642      0.0330
   3849 H          16.0364    7.9392   23.4552 H     642  UNL642      0.0521
   3850 H          16.0365    8.5135   21.7588 H     642  UNL642      0.0521
   3851 H          16.0464    9.6868   23.1012 H     642  UNL642      0.0521
   3852 H          18.1032    7.8278   22.4720 H     642  UNL642      0.2090
   3853 O          17.8175    8.7082   25.6924 O.3   643  UNL643     -0.3982
   3854 C          16.4017    8.7082   25.6924 C.3   643  UNL643      0.0330
   3855 H          16.0364    7.9392   26.3776 H     643  UNL643      0.0521
   3856 H          16.0365    8.5135   24.6811 H     643  UNL643      0.0521
   3857 H          16.0464    9.6868   26.0236 H     643  UNL643      0.0521
   3858 H          18.1032    7.8278   25.3944 H     643  UNL643      0.2090
   3859 O          17.8175    8.7082   28.6148 O.3   644  UNL644     -0.3982
   3860 C          16.4017    8.7082   28.6148 C.3   644  UNL644      0.0330
   3861 H          16.0364    7.9392   29.3000 H     644  UNL644      0.0521
   3862 H          16.0365    8.5135   27.6035 H     644  UNL644      0.0521
   3863 H          16.0464    9.6868   28.9460 H     644  UNL644      0.0521
   3864 H          18.1032    7.8278   28.3168 H     644  UNL644      0.2090
   3865 O          16.9801   12.3849    0.3134 O.3   645  UNL645     -0.3982
   3866 C          17.8274   11.2506    0.3134 C.3   645  UNL645      0.0330
   3867 H          18.6621   11.4182    0.9986 H     645  UNL645      0.0521
   3868 H          18.2019   11.0746   -0.6979 H     645  UNL645      0.0521
   3869 H          17.2560   10.3803    0.6446 H     645  UNL645      0.0521
   3870 H          17.5144   13.1407    0.0154 H     645  UNL645      0.2090
   3871 O          17.8175   11.7525    3.2358 O.3   646  UNL646     -0.3982
   3872 C          16.4017   11.7525    3.2358 C.3   646  UNL646      0.0330
   3873 H          16.0364   10.9835    3.9210 H     646  UNL646      0.0521
   3874 H          16.0365   11.5578    2.2245 H     646  UNL646      0.0521
   3875 H          16.0464   12.7311    3.5670 H     646  UNL646      0.0521
   3876 H          18.1032   10.8721    2.9378 H     646  UNL646      0.2090
   3877 O          17.8175   11.7525    6.1582 O.3   647  UNL647     -0.3982
   3878 C          16.4017   11.7525    6.1582 C.3   647  UNL647      0.0330
   3879 H          16.0364   10.9835    6.8434 H     647  UNL647      0.0521
   3880 H          16.0365   11.5578    5.1469 H     647  UNL647      0.0521
   3881 H          16.0464   12.7311    6.4894 H     647  UNL647      0.0521
   3882 H          18.1032   10.8721    5.8602 H     647  UNL647      0.2090
   3883 O          17.8175   11.7525    9.0806 O.3   648  UNL648     -0.3982
   3884 C          16.4017   11.7525    9.0806 C.3   648  UNL648      0.0330
   3885 H          16.0364   10.9835    9.7658 H     648  UNL648      0.0521
   3886 H          16.0365   11.5578    8.0693 H     648  UNL648      0.0521
   3887 H          16.0464   12.7311    9.4118 H     648  UNL648      0.0521
   3888 H          18.1032   10.8721    8.7826 H     648  UNL648      0.2090
   3889 O          17.8175   11.7525   12.0029 O.3   649  UNL649     -0.3982
   3890 C          16.4017   11.7525   12.0029 C.3   649  UNL649      0.0330
   3891 H          16.0364   10.9835   12.6881 H     649  UNL649      0.0521
   3892 H          16.0365   11.5578   10.9916 H     649  UNL649      0.0521
   3893 H          16.0464   12.7311   12.3341 H     649  UNL649      0.0521
   3894 H          18.1032   10.8721   11.7049 H     649  UNL649      0.2090
   3895 O          17.8175   11.7525   14.9253 O.3   650  UNL650     -0.3982
   3896 C          16.4017   11.7525   14.9253 C.3   650  UNL650      0.0330
   3897 H          16.0364   10.9835   15.6105 H     650  UNL650      0.0521
   3898 H          16.0365   11.5578   13.9140 H     650  UNL650      0.0521
   3899 H          16.0464   12.7311   15.2565 H     650  UNL650      0.0521
   3900 H          18.1032   10.8721   14.6273 H     650  UNL650      0.2090
   3901 O          18.2112   10.6589   17.8477 O.3   651  UNL651     -0.3982
   3902 C          19.0585   11.7931   17.8477 C.3   651  UNL651      0.0330
   3903 H          18.6610   12.5460   18.5329 H     651  UNL651      0.0521
   3904 H          19.1211   12.2022   16.8364 H     651  UNL651      0.0521
   3905 H          20.0551   11.4921   18.1789 H     651  UNL651      0.0521
   3906 H          17.3349   10.9569   17.5497 H     651  UNL651      0.2090
   3907 O          19.4057   10.9919   21.4366 O.3   652  UNL652     -0.3982
   3908 C          18.6144   11.6254   20.4481 C.3   652  UNL652      0.0330
   3909 H          19.2643   12.1052   19.7121 H     652  UNL652      0.0521
   3910 H          17.9681   12.3698   20.9195 H     652  UNL652      0.0521
   3911 H          17.9976   10.8731   19.9508 H     652  UNL652      0.0521
   3912 H          19.9416   11.6839   21.8603 H     652  UNL652      0.2090
   3913 O          19.6480   12.0068   24.0917 O.3   653  UNL653     -0.3982
   3914 C          18.3821   11.5201   23.6854 C.3   653  UNL653      0.0330
   3915 H          18.4740   10.4756   23.3774 H     653  UNL653      0.0521
   3916 H          18.0077   12.1243   22.8555 H     653  UNL653      0.0521
   3917 H          17.6880   11.5900   24.5262 H     653  UNL653      0.0521
   3918 H          20.2421   11.9323   23.3255 H     653  UNL653      0.2090
   3919 O          19.2807   11.9855   25.7004 O.3   654  UNL654     -0.3982
   3920 C          18.4894   11.6725   26.8320 C.3   654  UNL654      0.0330
   3921 H          19.1393   11.4317   27.6769 H     654  UNL654      0.0521
   3922 H          17.8431   10.8221   26.6017 H     654  UNL654      0.0521
   3923 H          17.8726   12.5382   27.0847 H     654  UNL654      0.0521
   3924 H          19.8166   11.1993   25.5002 H     654  UNL654      0.2090
   3925 O          19.8175   11.7525   29.5372 O.3   655  UNL655     -0.3982
   3926 C          18.4017   11.7525   29.5372 C.3   655  UNL655      0.0330
   3927 H          18.0364   10.9835   30.2224 H     655  UNL655      0.0521
   3928 H          18.0365   11.5578   28.5259 H     655  UNL655      0.0521
   3929 H          18.0464   12.7311   29.8684 H     655  UNL655      0.0521
   3930 H          20.1032   10.8721   29.2392 H     655  UNL655      0.2090
   3931 O          17.8175   14.5019   -0.6349 O.3   656  UNL656     -0.3982
   3932 C          16.4017   14.5019   -0.6349 C.3   656  UNL656      0.0330
   3933 H          16.0364   14.8704   -1.5967 H     656  UNL656      0.0521
   3934 H          16.0365   15.1392    0.1741 H     656  UNL656      0.0521
   3935 H          16.0464   13.4805   -0.4798 H     656  UNL656      0.0521
   3936 H          18.1032   15.4208   -0.7744 H     656  UNL656      0.2090
   3937 O          17.8175   14.7967    2.3134 O.3   657  UNL657     -0.3982
   3938 C          16.4017   14.7967    2.3134 C.3   657  UNL657      0.0330
   3939 H          16.0364   14.0277    2.9986 H     657  UNL657      0.0521
   3940 H          16.0365   14.6020    1.3021 H     657  UNL657      0.0521
   3941 H          16.0464   15.7753    2.6446 H     657  UNL657      0.0521
   3942 H          18.1032   13.9163    2.0154 H     657  UNL657      0.2090
   3943 O          17.8175   14.7967    5.2358 O.3   658  UNL658     -0.3982
   3944 C          16.4017   14.7967    5.2358 C.3   658  UNL658      0.0330
   3945 H          16.0364   14.0277    5.9210 H     658  UNL658      0.0521
   3946 H          16.0365   14.6020    4.2245 H     658  UNL658      0.0521
   3947 H          16.0464   15.7753    5.5670 H     658  UNL658      0.0521
   3948 H          18.1032   13.9163    4.9378 H     658  UNL658      0.2090
   3949 O          17.8175   14.7967    8.1582 O.3   659  UNL659     -0.3982
   3950 C          16.4017   14.7967    8.1582 C.3   659  UNL659      0.0330
   3951 H          16.0364   14.0277    8.8434 H     659  UNL659      0.0521
   3952 H          16.0365   14.6020    7.1469 H     659  UNL659      0.0521
   3953 H          16.0464   15.7753    8.4894 H     659  UNL659      0.0521
   3954 H          18.1032   13.9163    7.8602 H     659  UNL659      0.2090
   3955 O          17.8175   14.7967   11.0806 O.3   660  UNL660     -0.3982
   3956 C          16.4017   14.7967   11.0806 C.3   660  UNL660      0.0330
   3957 H          16.0364   14.0277   11.7658 H     660  UNL660      0.0521
   3958 H          16.0365   14.6020   10.0693 H     660  UNL660      0.0521
   3959 H          16.0464   15.7753   11.4118 H     660  UNL660      0.0521
   3960 H          18.1032   13.9163   10.7826 H     660  UNL660      0.2090
   3961 O          17.8175   14.5019   13.9770 O.3   661  UNL661     -0.3982
   3962 C          16.4017   14.5019   13.9770 C.3   661  UNL661      0.0330
   3963 H          16.0364   14.8704   13.0152 H     661  UNL661      0.0521
   3964 H          16.0365   15.1392   14.7860 H     661  UNL661      0.0521
   3965 H          16.0464   13.4805   14.1321 H     661  UNL661      0.0521
   3966 H          18.1032   15.4208   13.8375 H     661  UNL661      0.2090
   3967 O          17.8175   14.7967   16.9253 O.3   662  UNL662     -0.3982
   3968 C          16.4017   14.7967   16.9253 C.3   662  UNL662      0.0330
   3969 H          16.0364   14.0277   17.6105 H     662  UNL662      0.0521
   3970 H          16.0365   14.6020   15.9140 H     662  UNL662      0.0521
   3971 H          16.0464   15.7753   17.2565 H     662  UNL662      0.0521
   3972 H          18.1032   13.9163   16.6273 H     662  UNL662      0.2090
   3973 O          17.8175   14.5019   19.8217 O.3   663  UNL663     -0.3982
   3974 C          16.4017   14.5019   19.8217 C.3   663  UNL663      0.0330
   3975 H          16.0364   14.8704   18.8599 H     663  UNL663      0.0521
   3976 H          16.0365   15.1392   20.6307 H     663  UNL663      0.0521
   3977 H          16.0464   13.4805   19.9768 H     663  UNL663      0.0521
   3978 H          18.1032   15.4208   19.6822 H     663  UNL663      0.2090
   3979 O          17.8175   14.7967   22.7701 O.3   664  UNL664     -0.3982
   3980 C          16.4017   14.7967   22.7701 C.3   664  UNL664      0.0330
   3981 H          16.0364   14.0277   23.4552 H     664  UNL664      0.0521
   3982 H          16.0365   14.6020   21.7588 H     664  UNL664      0.0521
   3983 H          16.0464   15.7753   23.1012 H     664  UNL664      0.0521
   3984 H          18.1032   13.9163   22.4720 H     664  UNL664      0.2090
   3985 O          17.8175   14.7967   25.6924 O.3   665  UNL665     -0.3982
   3986 C          16.4017   14.7967   25.6924 C.3   665  UNL665      0.0330
   3987 H          16.0364   14.0277   26.3776 H     665  UNL665      0.0521
   3988 H          16.0365   14.6020   24.6811 H     665  UNL665      0.0521
   3989 H          16.0464   15.7753   26.0236 H     665  UNL665      0.0521
   3990 H          18.1032   13.9163   25.3944 H     665  UNL665      0.2090
   3991 O          17.8175   14.7967   28.6148 O.3   666  UNL666     -0.3982
   3992 C          16.4017   14.7967   28.6148 C.3   666  UNL666      0.0330
   3993 H          16.0364   14.0277   29.3000 H     666  UNL666      0.0521
   3994 H          16.0365   14.6020   27.6035 H     666  UNL666      0.0521
   3995 H          16.0464   15.7753   28.9460 H     666  UNL666      0.0521
   3996 H          18.1032   13.9163   28.3168 H     666  UNL666      0.2090
   3997 O          17.8175   17.6495   -0.8026 O.3   667  UNL667     -0.3982
   3998 C          16.4017   17.6495   -0.8026 C.3   667  UNL667      0.0330
   3999 H          16.0364   18.6587   -0.5965 H     667  UNL667      0.0521
   4000 H          16.0365   16.9558   -0.0413 H     667  UNL667      0.0521
   4001 H          16.0464   17.3292   -1.7848 H     667  UNL667      0.0521
   4002 H          18.1032   17.9376    0.0811 H     667  UNL667      0.2090
   4003 O          17.8175   17.8410    2.3134 O.3   668  UNL668     -0.3982
   4004 C          16.4017   17.8410    2.3134 C.3   668  UNL668      0.0330
   4005 H          16.0364   17.0720    2.9986 H     668  UNL668      0.0521
   4006 H          16.0365   17.6463    1.3021 H     668  UNL668      0.0521
   4007 H          16.0464   18.8196    2.6446 H     668  UNL668      0.0521
   4008 H          18.1032   16.9606    2.0154 H     668  UNL668      0.2090
   4009 O          17.8175   17.8410    5.2358 O.3   669  UNL669     -0.3982
   4010 C          16.4017   17.8410    5.2358 C.3   669  UNL669      0.0330
   4011 H          16.0364   17.0720    5.9210 H     669  UNL669      0.0521
   4012 H          16.0365   17.6463    4.2245 H     669  UNL669      0.0521
   4013 H          16.0464   18.8196    5.5670 H     669  UNL669      0.0521
   4014 H          18.1032   16.9606    4.9378 H     669  UNL669      0.2090
   4015 O          17.8175   17.8410    8.1582 O.3   670  UNL670     -0.3982
   4016 C          16.4017   17.8410    8.1582 C.3   670  UNL670      0.0330
   4017 H          16.0364   17.0720    8.8434 H     670  UNL670      0.0521
   4018 H          16.0365   17.6463    7.1469 H     670  UNL670      0.0521
   4019 H          16.0464   18.8196    8.4894 H     670  UNL670      0.0521
   4020 H          18.1032   16.9606    7.8602 H     670  UNL670      0.2090
   4021 O          19.8175   17.5713   11.1181 O.3   671  UNL671     -0.3982
   4022 C          18.4017   17.5713   11.1181 C.3   671  UNL671      0.0330
   4023 H          18.0364   17.4825   10.0919 H     671  UNL671      0.0521
   4024 H          18.0365   18.4980   11.5673 H     671  UNL671      0.0521
   4025 H          18.0464   16.7203   11.7039 H     671  UNL671      0.0521
   4026 H          20.1032   18.3369   10.5911 H     671  UNL671      0.2090
   4027 O          19.2264   18.0140   14.8742 O.3   672  UNL672     -0.3982
   4028 C          18.4352   17.7009   13.7427 C.3   672  UNL672      0.0330
   4029 H          18.3235   16.6167   13.6636 H     672  UNL672      0.0521
   4030 H          18.9129   18.0953   12.8426 H     672  UNL672      0.0521
   4031 H          17.4502   18.1589   13.8602 H     672  UNL672      0.0521
   4032 H          20.0935   17.5945   14.7414 H     672  UNL672      0.2090
   4033 O          19.8175   17.5713   16.9628 O.3   673  UNL673     -0.3982
   4034 C          18.4017   17.5713   16.9628 C.3   673  UNL673      0.0330
   4035 H          18.0364   17.4825   15.9367 H     673  UNL673      0.0521
   4036 H          18.0365   18.4980   17.4121 H     673  UNL673      0.0521
   4037 H          18.0464   16.7203   17.5486 H     673  UNL673      0.0521
   4038 H          20.1032   18.3369   16.4358 H     673  UNL673      0.2090
   4039 O          17.8175   17.8410   19.8477 O.3   674  UNL674     -0.3982
   4040 C          16.4017   17.8410   19.8477 C.3   674  UNL674      0.0330
   4041 H          16.0364   17.0720   20.5329 H     674  UNL674      0.0521
   4042 H          16.0365   17.6463   18.8364 H     674  UNL674      0.0521
   4043 H          16.0464   18.8196   20.1789 H     674  UNL674      0.0521
   4044 H          18.1032   16.9606   19.5497 H     674  UNL674      0.2090
   4045 O          17.8175   17.8410   22.7701 O.3   675  UNL675     -0.3982
   4046 C          16.4017   17.8410   22.7701 C.3   675  UNL675      0.0330
   4047 H          16.0364   17.0720   23.4552 H     675  UNL675      0.0521
   4048 H          16.0365   17.6463   21.7588 H     675  UNL675      0.0521
   4049 H          16.0464   18.8196   23.1012 H     675  UNL675      0.0521
   4050 H          18.1032   16.9606   22.4720 H     675  UNL675      0.2090
   4051 O          17.8175   17.8410   25.6924 O.3   676  UNL676     -0.3982
   4052 C          16.4017   17.8410   25.6924 C.3   676  UNL676      0.0330
   4053 H          16.0364   17.0720   26.3776 H     676  UNL676      0.0521
   4054 H          16.0365   17.6463   24.6811 H     676  UNL676      0.0521
   4055 H          16.0464   18.8196   26.0236 H     676  UNL676      0.0521
   4056 H          18.1032   16.9606   25.3944 H     676  UNL676      0.2090
   4057 O          17.8175   17.8410   28.6148 O.3   677  UNL677     -0.3982
   4058 C          16.4017   17.8410   28.6148 C.3   677  UNL677      0.0330
   4059 H          16.0364   17.0720   29.3000 H     677  UNL677      0.0521
   4060 H          16.0365   17.6463   27.6035 H     677  UNL677      0.0521
   4061 H          16.0464   18.8196   28.9460 H     677  UNL677      0.0521
   4062 H          18.1032   16.9606   28.3168 H     677  UNL677      0.2090
   4063 O          17.8175   20.8852   -0.6090 O.3   678  UNL678     -0.3982
   4064 C          16.4017   20.8852   -0.6090 C.3   678  UNL678      0.0330
   4065 H          16.0364   20.1162    0.0762 H     678  UNL678      0.0521
   4066 H          16.0365   20.6905   -1.6203 H     678  UNL678      0.0521
   4067 H          16.0464   21.8638   -0.2778 H     678  UNL678      0.0521
   4068 H          18.1032   20.0048   -0.9070 H     678  UNL678      0.2090
   4069 O          19.8175   20.6155    2.3510 O.3   679  UNL679     -0.3982
   4070 C          18.4017   20.6155    2.3510 C.3   679  UNL679      0.0330
   4071 H          18.0364   20.5268    1.3248 H     679  UNL679      0.0521
   4072 H          18.0365   21.5422    2.8002 H     679  UNL679      0.0521
   4073 H          18.0464   19.7645    2.9368 H     679  UNL679      0.0521
   4074 H          20.1032   21.3812    1.8240 H     679  UNL679      0.2090
   4075 O          19.8175   20.6155    5.2733 O.3   680  UNL680     -0.3982
   4076 C          18.4017   20.6155    5.2733 C.3   680  UNL680      0.0330
   4077 H          18.0364   20.5268    4.2472 H     680  UNL680      0.0521
   4078 H          18.0365   21.5422    5.7226 H     680  UNL680      0.0521
   4079 H          18.0464   19.7645    5.8591 H     680  UNL680      0.0521
   4080 H          20.1032   21.3812    4.7463 H     680  UNL680      0.2090
   4081 O          19.6925   20.9306    8.2472 O.3   681  UNL681     -0.3982
   4082 C          18.2767   20.9306    8.2472 C.3   681  UNL681      0.0330
   4083 H          17.9114   19.9038    8.1667 H     681  UNL681      0.0521
   4084 H          17.9115   21.5256    7.4066 H     681  UNL681      0.0521
   4085 H          17.9214   21.3691    9.1827 H     681  UNL681      0.0521
   4086 H          19.9782   20.5361    7.4056 H     681  UNL681      0.2090
   4087 O          19.8175   20.6937   10.8870 O.3   682  UNL682     -0.3982
   4088 C          18.4017   20.6937   10.8870 C.3   682  UNL682      0.0330
   4089 H          18.0364   21.7029   11.0930 H     682  UNL682      0.0521
   4090 H          18.0365   20.0001   11.6482 H     682  UNL682      0.0521
   4091 H          18.0464   20.3734    9.9047 H     682  UNL682      0.0521
   4092 H          20.1032   20.9819   11.7706 H     682  UNL682      0.2090
   4093 O          19.8175   20.8852   14.0029 O.3   683  UNL683     -0.3982
   4094 C          18.4017   20.8852   14.0029 C.3   683  UNL683      0.0330
   4095 H          18.0364   20.1162   14.6881 H     683  UNL683      0.0521
   4096 H          18.0365   20.6905   12.9916 H     683  UNL683      0.0521
   4097 H          18.0464   21.8638   14.3341 H     683  UNL683      0.0521
   4098 H          20.1032   20.0048   13.7049 H     683  UNL683      0.2090
   4099 O          17.8175   20.8852   16.9253 O.3   684  UNL684     -0.3982
   4100 C          16.4017   20.8852   16.9253 C.3   684  UNL684      0.0330
   4101 H          16.0364   20.1162   17.6105 H     684  UNL684      0.0521
   4102 H          16.0365   20.6905   15.9140 H     684  UNL684      0.0521
   4103 H          16.0464   21.8638   17.2565 H     684  UNL684      0.0521
   4104 H          18.1032   20.0048   16.6273 H     684  UNL684      0.2090
   4105 O          17.8175   20.8852   19.8477 O.3   685  UNL685     -0.3982
   4106 C          16.4017   20.8852   19.8477 C.3   685  UNL685      0.0330
   4107 H          16.0364   20.1162   20.5329 H     685  UNL685      0.0521
   4108 H          16.0365   20.6905   18.8364 H     685  UNL685      0.0521
   4109 H          16.0464   21.8638   20.1789 H     685  UNL685      0.0521
   4110 H          18.1032   20.0048   19.5497 H     685  UNL685      0.2090
   4111 O          19.8175   20.6155   22.8076 O.3   686  UNL686     -0.3982
   4112 C          18.4017   20.6155   22.8076 C.3   686  UNL686      0.0330
   4113 H          18.0364   20.5268   21.7814 H     686  UNL686      0.0521
   4114 H          18.0365   21.5422   23.2568 H     686  UNL686      0.0521
   4115 H          18.0464   19.7645   23.3934 H     686  UNL686      0.0521
   4116 H          20.1032   21.3812   22.2806 H     686  UNL686      0.2090
   4117 O          19.8175   20.6155   25.7300 O.3   687  UNL687     -0.3982
   4118 C          18.4017   20.6155   25.7300 C.3   687  UNL687      0.0330
   4119 H          18.0364   20.5268   24.7038 H     687  UNL687      0.0521
   4120 H          18.0365   21.5422   26.1792 H     687  UNL687      0.0521
   4121 H          18.0464   19.7645   26.3158 H     687  UNL687      0.0521
   4122 H          20.1032   21.3812   25.2030 H     687  UNL687      0.2090
   4123 O          19.2264   21.0582   29.4861 O.3   688  UNL688     -0.3982
   4124 C          18.4352   20.7452   28.3546 C.3   688  UNL688      0.0330
   4125 H          18.3235   19.6609   28.2755 H     688  UNL688      0.0521
   4126 H          18.9129   21.1396   27.4544 H     688  UNL688      0.0521
   4127 H          17.4502   21.2032   28.4720 H     688  UNL688      0.0521
   4128 H          20.0936   20.6387   29.3532 H     688  UNL688      0.2090
   4129 O          19.6925   23.8499   -0.6449 O.3   689  UNL689     -0.3982
   4130 C          18.2767   23.8499   -0.6449 C.3   689  UNL689      0.0330
   4131 H          17.9114   22.8230   -0.7254 H     689  UNL689      0.0521
   4132 H          17.9115   24.4448   -1.4855 H     689  UNL689      0.0521
   4133 H          17.9214   24.2883    0.2906 H     689  UNL689      0.0521
   4134 H          19.9782   23.4554   -1.4865 H     689  UNL689      0.2090
   4135 O          19.8175   23.9203    2.1943 O.3   690  UNL690     -0.3982
   4136 C          18.4017   23.9203    2.1943 C.3   690  UNL690      0.0330
   4137 H          18.0364   23.8824    3.2236 H     690  UNL690      0.0521
   4138 H          18.0365   23.0558    1.6347 H     690  UNL690      0.0521
   4139 H          18.0464   24.8368    1.7174 H     690  UNL690      0.0521
   4140 H          20.1032   23.0958    2.6233 H     690  UNL690      0.2090
   4141 O          17.8175   23.9295    5.2358 O.3   691  UNL691     -0.3982
   4142 C          16.4017   23.9295    5.2358 C.3   691  UNL691      0.0330
   4143 H          16.0364   23.1605    5.9210 H     691  UNL691      0.0521
   4144 H          16.0365   23.7348    4.2245 H     691  UNL691      0.0521
   4145 H          16.0464   24.9081    5.5670 H     691  UNL691      0.0521
   4146 H          18.1032   23.0491    4.9378 H     691  UNL691      0.2090
   4147 O          17.8175   23.9295    8.1582 O.3   692  UNL692     -0.3982
   4148 C          16.4017   23.9295    8.1582 C.3   692  UNL692      0.0330
   4149 H          16.0364   23.1605    8.8434 H     692  UNL692      0.0521
   4150 H          16.0365   23.7348    7.1469 H     692  UNL692      0.0521
   4151 H          16.0464   24.9081    8.4894 H     692  UNL692      0.0521
   4152 H          18.1032   23.0491    7.8602 H     692  UNL692      0.2090
   4153 O          19.8175   23.7380   10.8870 O.3   693  UNL693     -0.3982
   4154 C          18.4017   23.7380   10.8870 C.3   693  UNL693      0.0330
   4155 H          18.0364   24.7472   11.0930 H     693  UNL693      0.0521
   4156 H          18.0365   23.0443   11.6482 H     693  UNL693      0.0521
   4157 H          18.0464   23.4177    9.9047 H     693  UNL693      0.0521
   4158 H          20.1032   24.0261   11.7706 H     693  UNL693      0.2090
   4159 O          19.8175   23.9295   14.0029 O.3   694  UNL694     -0.3982
   4160 C          18.4017   23.9295   14.0029 C.3   694  UNL694      0.0330
   4161 H          18.0364   23.1605   14.6881 H     694  UNL694      0.0521
   4162 H          18.0365   23.7348   12.9916 H     694  UNL694      0.0521
   4163 H          18.0464   24.9081   14.3341 H     694  UNL694      0.0521
   4164 H          20.1032   23.0491   13.7049 H     694  UNL694      0.2090
   4165 O          18.3386   23.2477   17.6078 O.3   695  UNL695     -0.3982
   4166 C          18.9892   23.7961   16.4763 C.3   695  UNL695      0.0330
   4167 H          19.4208   24.7656   16.7373 H     695  UNL695      0.0521
   4168 H          18.2697   23.9129   15.6622 H     695  UNL695      0.0521
   4169 H          19.7858   23.1181   16.1610 H     695  UNL695      0.0521
   4170 H          17.6376   23.8708   17.8643 H     695  UNL695      0.2090
   4171 O          17.8175   23.9295   19.8477 O.3   696  UNL696     -0.3982
   4172 C          16.4017   23.9295   19.8477 C.3   696  UNL696      0.0330
   4173 H          16.0364   23.1605   20.5329 H     696  UNL696      0.0521
   4174 H          16.0365   23.7348   18.8364 H     696  UNL696      0.0521
   4175 H          16.0464   24.9081   20.1789 H     696  UNL696      0.0521
   4176 H          18.1032   23.0491   19.5497 H     696  UNL696      0.2090
   4177 O          17.8175   23.9295   22.7701 O.3   697  UNL697     -0.3982
   4178 C          16.4017   23.9295   22.7701 C.3   697  UNL697      0.0330
   4179 H          16.0364   23.1605   23.4552 H     697  UNL697      0.0521
   4180 H          16.0365   23.7348   21.7588 H     697  UNL697      0.0521
   4181 H          16.0464   24.9081   23.1012 H     697  UNL697      0.0521
   4182 H          18.1032   23.0491   22.4720 H     697  UNL697      0.2090
   4183 O          17.8175   23.9295   25.6924 O.3   698  UNL698     -0.3982
   4184 C          16.4017   23.9295   25.6924 C.3   698  UNL698      0.0330
   4185 H          16.0364   23.1605   26.3776 H     698  UNL698      0.0521
   4186 H          16.0365   23.7348   24.6811 H     698  UNL698      0.0521
   4187 H          16.0464   24.9081   26.0236 H     698  UNL698      0.0521
   4188 H          18.1032   23.0491   25.3944 H     698  UNL698      0.2090
   4189 O          17.8175   23.9295   28.6148 O.3   699  UNL699     -0.3982
   4190 C          16.4017   23.9295   28.6148 C.3   699  UNL699      0.0330
   4191 H          16.0364   23.1605   29.3000 H     699  UNL699      0.0521
   4192 H          16.0365   23.7348   27.6035 H     699  UNL699      0.0521
   4193 H          16.0464   24.9081   28.9460 H     699  UNL699      0.0521
   4194 H          18.1032   23.0491   28.3168 H     699  UNL699      0.2090
   4195 O          17.8175   26.9737   -0.6090 O.3   700  UNL700     -0.3982
   4196 C          16.4017   26.9737   -0.6090 C.3   700  UNL700      0.0330
   4197 H          16.0364   26.2047    0.0762 H     700  UNL700      0.0521
   4198 H          16.0365   26.7790   -1.6203 H     700  UNL700      0.0521
   4199 H          16.0464   27.9523   -0.2778 H     700  UNL700      0.0521
   4200 H          18.1032   26.0933   -0.9070 H     700  UNL700      0.2090
   4201 O          19.8175   26.9737    2.3134 O.3   701  UNL701     -0.3982
   4202 C          18.4017   26.9737    2.3134 C.3   701  UNL701      0.0330
   4203 H          18.0364   26.2047    2.9986 H     701  UNL701      0.0521
   4204 H          18.0365   26.7790    1.3021 H     701  UNL701      0.0521
   4205 H          18.0464   27.9523    2.6446 H     701  UNL701      0.0521
   4206 H          20.1032   26.0933    2.0154 H     701  UNL701      0.2090
   4207 O          18.9467   27.4680    6.0433 O.3   702  UNL702     -0.3982
   4208 C          18.5083   26.7387    4.9118 C.3   702  UNL702      0.0330
   4209 H          18.4131   25.6817    5.1728 H     702  UNL702      0.0521
   4210 H          19.2269   26.8607    4.0977 H     702  UNL702      0.0521
   4211 H          17.5353   27.1229    4.5965 H     702  UNL702      0.0521
   4212 H          19.8115   27.1049    6.2998 H     702  UNL702      0.2090
   4213 O          19.8175   26.7040    8.1957 O.3   703  UNL703     -0.3982
   4214 C          18.4017   26.7040    8.1957 C.3   703  UNL703      0.0330
   4215 H          18.0364   26.6153    7.1696 H     703  UNL703      0.0521
   4216 H          18.0365   27.6308    8.6449 H     703  UNL703      0.0521
   4217 H          18.0464   25.8530    8.7815 H     703  UNL703      0.0521
   4218 H          20.1032   27.4697    7.6687 H     703  UNL703      0.2090
   4219 O          19.8175   26.9737   11.0806 O.3   704  UNL704     -0.3982
   4220 C          18.4017   26.9737   11.0806 C.3   704  UNL704      0.0330
   4221 H          18.0364   26.2047   11.7658 H     704  UNL704      0.0521
   4222 H          18.0365   26.7790   10.0693 H     704  UNL704      0.0521
   4223 H          18.0464   27.9523   11.4118 H     704  UNL704      0.0521
   4224 H          20.1032   26.0933   10.7826 H     704  UNL704      0.2090
   4225 O          19.8175   26.9737   14.0029 O.3   705  UNL705     -0.3982
   4226 C          18.4017   26.9737   14.0029 C.3   705  UNL705      0.0330
   4227 H          18.0364   26.2047   14.6881 H     705  UNL705      0.0521
   4228 H          18.0365   26.7790   12.9916 H     705  UNL705      0.0521
   4229 H          18.0464   27.9523   14.3341 H     705  UNL705      0.0521
   4230 H          20.1032   26.0933   13.7049 H     705  UNL705      0.2090
   4231 O          19.8175   26.9737   16.9253 O.3   706  UNL706     -0.3982
   4232 C          18.4017   26.9737   16.9253 C.3   706  UNL706      0.0330
   4233 H          18.0364   26.2047   17.6105 H     706  UNL706      0.0521
   4234 H          18.0365   26.7790   15.9140 H     706  UNL706      0.0521
   4235 H          18.0464   27.9523   17.2565 H     706  UNL706      0.0521
   4236 H          20.1032   26.0933   16.6273 H     706  UNL706      0.2090
   4237 O          17.8175   26.9737   19.8477 O.3   707  UNL707     -0.3982
   4238 C          16.4017   26.9737   19.8477 C.3   707  UNL707      0.0330
   4239 H          16.0364   26.2047   20.5329 H     707  UNL707      0.0521
   4240 H          16.0365   26.7790   18.8364 H     707  UNL707      0.0521
   4241 H          16.0464   27.9523   20.1789 H     707  UNL707      0.0521
   4242 H          18.1032   26.0933   19.5497 H     707  UNL707      0.2090
   4243 O          18.5070   27.3610   23.6413 O.3   708  UNL708     -0.3982
   4244 C          18.6861   26.5291   22.5098 C.3   708  UNL708      0.0330
   4245 H          19.7374   26.2414   22.4308 H     708  UNL708      0.0521
   4246 H          18.3754   27.0651   21.6097 H     708  UNL708      0.0521
   4247 H          18.0730   25.6325   22.6273 H     708  UNL708      0.0521
   4248 H          19.0628   28.1477   23.5085 H     708  UNL708      0.2090
   4249 O          19.6925   26.7237   25.5340 O.3   709  UNL709     -0.3982
   4250 C          18.2767   26.7237   25.5340 C.3   709  UNL709      0.0330
   4251 H          17.9114   27.7215   25.2784 H     709  UNL709      0.0521
   4252 H          17.9115   26.4324   26.5218 H     709  UNL709      0.0521
   4253 H          17.9214   26.0064   24.7905 H     709  UNL709      0.0521
   4254 H          19.9782   27.3690   26.2030 H     709  UNL709      0.2090
   4255 O          18.7893   26.2510   29.4861 O.3   710  UNL710     -0.3982
   4256 C          18.8886   27.0962   28.3546 C.3   710  UNL710      0.0330
   4257 H          17.9867   27.7083   28.2755 H     710  UNL710      0.0521
   4258 H          19.0095   26.4886   27.4544 H     710  UNL710      0.0521
   4259 H          19.7586   27.7465   28.4720 H     710  UNL710      0.0521
   4260 H          18.0090   25.6862   29.3532 H     710  UNL710      0.2090
   4261 O          17.8175   30.0180   -0.6090 O.3   711  UNL711     -0.3982
   4262 C          16.4017   30.0180   -0.6090 C.3   711  UNL711      0.0330
   4263 H          16.0364   29.2490    0.0762 H     711  UNL711      0.0521
   4264 H          16.0365   29.8233   -1.6203 H     711  UNL711      0.0521
   4265 H          16.0464   30.9966   -0.2778 H     711  UNL711      0.0521
   4266 H          18.1032   29.1376   -0.9070 H     711  UNL711      0.2090
   4267 O          17.8175   30.0180    2.3134 O.3   712  UNL712     -0.3982
   4268 C          16.4017   30.0180    2.3134 C.3   712  UNL712      0.0330
   4269 H          16.0364   29.2490    2.9986 H     712  UNL712      0.0521
   4270 H          16.0365   29.8233    1.3021 H     712  UNL712      0.0521
   4271 H          16.0464   30.9966    2.6446 H     712  UNL712      0.0521
   4272 H          18.1032   29.1376    2.0154 H     712  UNL712      0.2090
   4273 O          17.8175   30.0088    5.1167 O.3   713  UNL713     -0.3982
   4274 C          16.4017   30.0088    5.1167 C.3   713  UNL713      0.0330
   4275 H          16.0364   29.9709    6.1460 H     713  UNL713      0.0521
   4276 H          16.0365   29.1443    4.5571 H     713  UNL713      0.0521
   4277 H          16.0464   30.9253    4.6398 H     713  UNL713      0.0521
   4278 H          18.1032   29.1843    5.5457 H     713  UNL713      0.2090
   4279 O          19.8175   30.0088    8.0391 O.3   714  UNL714     -0.3982
   4280 C          18.4017   30.0088    8.0391 C.3   714  UNL714      0.0330
   4281 H          18.0364   29.9709    9.0683 H     714  UNL714      0.0521
   4282 H          18.0365   29.1443    7.4794 H     714  UNL714      0.0521
   4283 H          18.0464   30.9253    7.5622 H     714  UNL714      0.0521
   4284 H          20.1032   29.1843    8.4681 H     714  UNL714      0.2090
   4285 O          17.8175   30.0180   11.0806 O.3   715  UNL715     -0.3982
   4286 C          16.4017   30.0180   11.0806 C.3   715  UNL715      0.0330
   4287 H          16.0364   29.2490   11.7658 H     715  UNL715      0.0521
   4288 H          16.0365   29.8233   10.0693 H     715  UNL715      0.0521
   4289 H          16.0464   30.9966   11.4118 H     715  UNL715      0.0521
   4290 H          18.1032   29.1376   10.7826 H     715  UNL715      0.2090
   4291 O          17.8175   30.0180   14.0029 O.3   716  UNL716     -0.3982
   4292 C          16.4017   30.0180   14.0029 C.3   716  UNL716      0.0330
   4293 H          16.0364   29.2490   14.6881 H     716  UNL716      0.0521
   4294 H          16.0365   29.8233   12.9916 H     716  UNL716      0.0521
   4295 H          16.0464   30.9966   14.3341 H     716  UNL716      0.0521
   4296 H          18.1032   29.1376   13.7049 H     716  UNL716      0.2090
   4297 O          17.8175   30.0180   16.9253 O.3   717  UNL717     -0.3982
   4298 C          16.4017   30.0180   16.9253 C.3   717  UNL717      0.0330
   4299 H          16.0364   29.2490   17.6105 H     717  UNL717      0.0521
   4300 H          16.0365   29.8233   15.9140 H     717  UNL717      0.0521
   4301 H          16.0464   30.9966   17.2565 H     717  UNL717      0.0521
   4302 H          18.1032   29.1376   16.6273 H     717  UNL717      0.2090
   4303 O          17.8175   30.0180   19.8477 O.3   718  UNL718     -0.3982
   4304 C          16.4017   30.0180   19.8477 C.3   718  UNL718      0.0330
   4305 H          16.0364   29.2490   20.5329 H     718  UNL718      0.0521
   4306 H          16.0365   29.8233   18.8364 H     718  UNL718      0.0521
   4307 H          16.0464   30.9966   20.1789 H     718  UNL718      0.0521
   4308 H          18.1032   29.1376   19.5497 H     718  UNL718      0.2090
   4309 O          17.8175   30.0180   22.7701 O.3   719  UNL719     -0.3982
   4310 C          16.4017   30.0180   22.7701 C.3   719  UNL719      0.0330
   4311 H          16.0364   29.2490   23.4552 H     719  UNL719      0.0521
   4312 H          16.0365   29.8233   21.7588 H     719  UNL719      0.0521
   4313 H          16.0464   30.9966   23.1012 H     719  UNL719      0.0521
   4314 H          18.1032   29.1376   22.4720 H     719  UNL719      0.2090
   4315 O          17.8175   30.0180   25.6924 O.3   720  UNL720     -0.3982
   4316 C          16.4017   30.0180   25.6924 C.3   720  UNL720      0.0330
   4317 H          16.0364   29.2490   26.3776 H     720  UNL720      0.0521
   4318 H          16.0365   29.8233   24.6811 H     720  UNL720      0.0521
   4319 H          16.0464   30.9966   26.0236 H     720  UNL720      0.0521
   4320 H          18.1032   29.1376   25.3944 H     720  UNL720      0.2090
   4321 O          19.8175   30.0180   28.6148 O.3   721  UNL721     -0.3982
   4322 C          18.4017   30.0180   28.6148 C.3   721  UNL721      0.0330
   4323 H          18.0364   29.2490   29.3000 H     721  UNL721      0.0521
   4324 H          18.0365   29.8233   27.6035 H     721  UNL721      0.0521
   4325 H          18.0464   30.9966   28.9460 H     721  UNL721      0.0521
   4326 H          20.1032   29.1376   28.3168 H     721  UNL721      0.2090
   4327 O          23.1694   -0.3791   -0.5199 O.3   722  UNL722     -0.3982
   4328 C          21.7536   -0.3791   -0.5199 C.3   722  UNL722      0.0330
   4329 H          21.3883   -1.4060   -0.6004 H     722  UNL722      0.0521
   4330 H          21.3884    0.2158   -1.3605 H     722  UNL722      0.0521
   4331 H          21.3983    0.0593    0.4156 H     722  UNL722      0.0521
   4332 H          23.4551   -0.7736   -1.3615 H     722  UNL722      0.2090
   4333 O          23.2944   -0.6745    2.1550 O.3   723  UNL723     -0.3982
   4334 C          21.8786   -0.6745    2.1550 C.3   723  UNL723      0.0330
   4335 H          21.5133    0.3232    1.8994 H     723  UNL723      0.0521
   4336 H          21.5134   -0.9659    3.1428 H     723  UNL723      0.0521
   4337 H          21.5233   -1.3918    1.4115 H     723  UNL723      0.0521
   4338 H          23.5801   -0.0292    2.8240 H     723  UNL723      0.2090
   4339 O          22.2662   -1.1472    6.1071 O.3   724  UNL724     -0.3982
   4340 C          22.3655   -0.3021    4.9756 C.3   724  UNL724      0.0330
   4341 H          21.4636    0.3100    4.8965 H     724  UNL724      0.0521
   4342 H          22.4863   -0.9097    4.0754 H     724  UNL724      0.0521
   4343 H          23.2354    0.3483    5.0930 H     724  UNL724      0.0521
   4344 H          21.4859   -1.7120    5.9742 H     724  UNL724      0.2090
   4345 O          23.1694   -0.5692    8.1957 O.3   725  UNL725     -0.3982
   4346 C          21.7536   -0.5692    8.1957 C.3   725  UNL725      0.0330
   4347 H          21.3883   -0.6580    7.1696 H     725  UNL725      0.0521
   4348 H          21.3884    0.3575    8.6449 H     725  UNL725      0.0521
   4349 H          21.3983   -1.4202    8.7815 H     725  UNL725      0.0521
   4350 H          23.4551    0.1964    7.6687 H     725  UNL725      0.2090
   4351 O          23.2944   -0.4245   11.0806 O.3   726  UNL726     -0.3982
   4352 C          21.8786   -0.4245   11.0806 C.3   726  UNL726      0.0330
   4353 H          21.5133   -1.1935   11.7658 H     726  UNL726      0.0521
   4354 H          21.5134   -0.6192   10.0693 H     726  UNL726      0.0521
   4355 H          21.5233    0.5541   11.4118 H     726  UNL726      0.0521
   4356 H          23.5801   -1.3049   10.7826 H     726  UNL726      0.2090
   4357 O          21.2944   -0.4245   14.0029 O.3   727  UNL727     -0.3982
   4358 C          19.8786   -0.4245   14.0029 C.3   727  UNL727      0.0330
   4359 H          19.5133   -1.1935   14.6881 H     727  UNL727      0.0521
   4360 H          19.5134   -0.6192   12.9916 H     727  UNL727      0.0521
   4361 H          19.5233    0.5541   14.3341 H     727  UNL727      0.0521
   4362 H          21.5801   -1.3049   13.7049 H     727  UNL727      0.2090
   4363 O          23.2944   -0.5041   17.0144 O.3   728  UNL728     -0.3982
   4364 C          21.8786   -0.5041   17.0144 C.3   728  UNL728      0.0330
   4365 H          21.5133   -1.5310   16.9338 H     728  UNL728      0.0521
   4366 H          21.5134    0.0908   16.1738 H     728  UNL728      0.0521
   4367 H          21.5233   -0.0657   17.9498 H     728  UNL728      0.0521
   4368 H          23.5801   -0.8986   16.1728 H     728  UNL728      0.2090
   4369 O          22.9351   -0.7279   18.9971 O.3   729  UNL729     -0.3982
   4370 C          22.1438   -0.4148   20.1286 C.3   729  UNL729      0.0330
   4371 H          21.8472   -1.3376   20.6335 H     729  UNL729      0.0521
   4372 H          21.2578    0.1410   19.8123 H     729  UNL729      0.0521
   4373 H          22.7316    0.2002   20.8141 H     729  UNL729      0.0521
   4374 H          22.3873   -1.2737   18.4076 H     729  UNL729      0.2090
   4375 O          23.1694   -0.3791   22.8591 O.3   730  UNL730     -0.3982
   4376 C          21.7536   -0.3791   22.8591 C.3   730  UNL730      0.0330
   4377 H          21.3883   -1.4060   22.7786 H     730  UNL730      0.0521
   4378 H          21.3884    0.2158   22.0185 H     730  UNL730      0.0521
   4379 H          21.3983    0.0593   23.7946 H     730  UNL730      0.0521
   4380 H          23.4551   -0.7736   22.0175 H     730  UNL730      0.2090
   4381 O          23.2944   -0.6942   25.7300 O.3   731  UNL731     -0.3982
   4382 C          21.8786   -0.6942   25.7300 C.3   731  UNL731      0.0330
   4383 H          21.5133   -0.7830   24.7038 H     731  UNL731      0.0521
   4384 H          21.5134    0.2325   26.1792 H     731  UNL731      0.0521
   4385 H          21.5233   -1.5452   26.3158 H     731  UNL731      0.0521
   4386 H          23.5801    0.0714   25.2030 H     731  UNL731      0.2090
   4387 O          23.2944   -0.4245   28.6148 O.3   732  UNL732     -0.3982
   4388 C          21.8786   -0.4245   28.6148 C.3   732  UNL732      0.0330
   4389 H          21.5133   -1.1935   29.3000 H     732  UNL732      0.0521
   4390 H          21.5134   -0.6192   27.6035 H     732  UNL732      0.0521
   4391 H          21.5233    0.5541   28.9460 H     732  UNL732      0.0521
   4392 H          23.5801   -1.3049   28.3168 H     732  UNL732      0.2090
   4393 O          21.2944    2.6197   -0.6090 O.3   733  UNL733     -0.3982
   4394 C          19.8786    2.6197   -0.6090 C.3   733  UNL733      0.0330
   4395 H          19.5133    1.8507    0.0762 H     733  UNL733      0.0521
   4396 H          19.5134    2.4250   -1.6203 H     733  UNL733      0.0521
   4397 H          19.5233    3.5983   -0.2778 H     733  UNL733      0.0521
   4398 H          21.5801    1.7393   -0.9070 H     733  UNL733      0.2090
   4399 O          21.2944    2.6197    2.3134 O.3   734  UNL734     -0.3982
   4400 C          19.8786    2.6197    2.3134 C.3   734  UNL734      0.0330
   4401 H          19.5133    1.8507    2.9986 H     734  UNL734      0.0521
   4402 H          19.5134    2.4250    1.3021 H     734  UNL734      0.0521
   4403 H          19.5233    3.5983    2.6446 H     734  UNL734      0.0521
   4404 H          21.5801    1.7393    2.0154 H     734  UNL734      0.2090
   4405 O          21.2944    2.6197    5.2358 O.3   735  UNL735     -0.3982
   4406 C          19.8786    2.6197    5.2358 C.3   735  UNL735      0.0330
   4407 H          19.5133    1.8507    5.9210 H     735  UNL735      0.0521
   4408 H          19.5134    2.4250    4.2245 H     735  UNL735      0.0521
   4409 H          19.5233    3.5983    5.5670 H     735  UNL735      0.0521
   4410 H          21.5801    1.7393    4.9378 H     735  UNL735      0.2090
   4411 O          21.2944    2.6197    8.1582 O.3   736  UNL736     -0.3982
   4412 C          19.8786    2.6197    8.1582 C.3   736  UNL736      0.0330
   4413 H          19.5133    1.8507    8.8434 H     736  UNL736      0.0521
   4414 H          19.5134    2.4250    7.1469 H     736  UNL736      0.0521
   4415 H          19.5233    3.5983    8.4894 H     736  UNL736      0.0521
   4416 H          21.5801    1.7393    7.8602 H     736  UNL736      0.2090
   4417 O          23.2944    2.6197   11.0806 O.3   737  UNL737     -0.3982
   4418 C          21.8786    2.6197   11.0806 C.3   737  UNL737      0.0330
   4419 H          21.5133    1.8507   11.7658 H     737  UNL737      0.0521
   4420 H          21.5134    2.4250   10.0693 H     737  UNL737      0.0521
   4421 H          21.5233    3.5983   11.4118 H     737  UNL737      0.0521
   4422 H          23.5801    1.7393   10.7826 H     737  UNL737      0.2090
   4423 O          21.2944    2.6197   14.0029 O.3   738  UNL738     -0.3982
   4424 C          19.8786    2.6197   14.0029 C.3   738  UNL738      0.0330
   4425 H          19.5133    1.8507   14.6881 H     738  UNL738      0.0521
   4426 H          19.5134    2.4250   12.9916 H     738  UNL738      0.0521
   4427 H          19.5233    3.5983   14.3341 H     738  UNL738      0.0521
   4428 H          21.5801    1.7393   13.7049 H     738  UNL738      0.2090
   4429 O          21.2944    2.6197   16.9253 O.3   739  UNL739     -0.3982
   4430 C          19.8786    2.6197   16.9253 C.3   739  UNL739      0.0330
   4431 H          19.5133    1.8507   17.6105 H     739  UNL739      0.0521
   4432 H          19.5134    2.4250   15.9140 H     739  UNL739      0.0521
   4433 H          19.5233    3.5983   17.2565 H     739  UNL739      0.0521
   4434 H          21.5801    1.7393   16.6273 H     739  UNL739      0.2090
   4435 O          21.2944    2.6197   19.8477 O.3   740  UNL740     -0.3982
   4436 C          19.8786    2.6197   19.8477 C.3   740  UNL740      0.0330
   4437 H          19.5133    1.8507   20.5329 H     740  UNL740      0.0521
   4438 H          19.5134    2.4250   18.8364 H     740  UNL740      0.0521
   4439 H          19.5233    3.5983   20.1789 H     740  UNL740      0.0521
   4440 H          21.5801    1.7393   19.5497 H     740  UNL740      0.2090
   4441 O          21.2944    2.6197   22.7701 O.3   741  UNL741     -0.3982
   4442 C          19.8786    2.6197   22.7701 C.3   741  UNL741      0.0330
   4443 H          19.5133    1.8507   23.4552 H     741  UNL741      0.0521
   4444 H          19.5134    2.4250   21.7588 H     741  UNL741      0.0521
   4445 H          19.5233    3.5983   23.1012 H     741  UNL741      0.0521
   4446 H          21.5801    1.7393   22.4720 H     741  UNL741      0.2090
   4447 O          21.2944    2.6197   25.6924 O.3   742  UNL742     -0.3982
   4448 C          19.8786    2.6197   25.6924 C.3   742  UNL742      0.0330
   4449 H          19.5133    1.8507   26.3776 H     742  UNL742      0.0521
   4450 H          19.5134    2.4250   24.6811 H     742  UNL742      0.0521
   4451 H          19.5233    3.5983   26.0236 H     742  UNL742      0.0521
   4452 H          21.5801    1.7393   25.3944 H     742  UNL742      0.2090
   4453 O          21.2944    2.6197   28.6148 O.3   743  UNL743     -0.3982
   4454 C          19.8786    2.6197   28.6148 C.3   743  UNL743      0.0330
   4455 H          19.5133    1.8507   29.3000 H     743  UNL743      0.0521
   4456 H          19.5134    2.4250   27.6035 H     743  UNL743      0.0521
   4457 H          19.5233    3.5983   28.9460 H     743  UNL743      0.0521
   4458 H          21.5801    1.7393   28.3168 H     743  UNL743      0.2090
   4459 O          21.2944    5.6640   -0.6090 O.3   744  UNL744     -0.3982
   4460 C          19.8786    5.6640   -0.6090 C.3   744  UNL744      0.0330
   4461 H          19.5133    4.8950    0.0762 H     744  UNL744      0.0521
   4462 H          19.5134    5.4693   -1.6203 H     744  UNL744      0.0521
   4463 H          19.5233    6.6426   -0.2778 H     744  UNL744      0.0521
   4464 H          21.5801    4.7836   -0.9070 H     744  UNL744      0.2090
   4465 O          21.2944    5.6640    2.3134 O.3   745  UNL745     -0.3982
   4466 C          19.8786    5.6640    2.3134 C.3   745  UNL745      0.0330
   4467 H          19.5133    4.8950    2.9986 H     745  UNL745      0.0521
   4468 H          19.5134    5.4693    1.3021 H     745  UNL745      0.0521
   4469 H          19.5233    6.6426    2.6446 H     745  UNL745      0.0521
   4470 H          21.5801    4.7836    2.0154 H     745  UNL745      0.2090
   4471 O          21.2944    5.6640    5.2358 O.3   746  UNL746     -0.3982
   4472 C          19.8786    5.6640    5.2358 C.3   746  UNL746      0.0330
   4473 H          19.5133    4.8950    5.9210 H     746  UNL746      0.0521
   4474 H          19.5134    5.4693    4.2245 H     746  UNL746      0.0521
   4475 H          19.5233    6.6426    5.5670 H     746  UNL746      0.0521
   4476 H          21.5801    4.7836    4.9378 H     746  UNL746      0.2090
   4477 O          21.6546    5.3766    8.9045 O.3   747  UNL747     -0.3982
   4478 C          22.5045    5.4171    7.7729 C.3   747  UNL747      0.0330
   4479 H          22.9607    6.4071    7.6939 H     747  UNL747      0.0521
   4480 H          21.9250    5.1983    6.8728 H     747  UNL747      0.0521
   4481 H          23.2886    4.6654    7.8904 H     747  UNL747      0.0521
   4482 H          20.9695    6.0538    8.7716 H     747  UNL747      0.2090
   4483 O          21.2944    5.6640   11.0806 O.3   748  UNL748     -0.3982
   4484 C          19.8786    5.6640   11.0806 C.3   748  UNL748      0.0330
   4485 H          19.5133    4.8950   11.7658 H     748  UNL748      0.0521
   4486 H          19.5134    5.4693   10.0693 H     748  UNL748      0.0521
   4487 H          19.5233    6.6426   11.4118 H     748  UNL748      0.0521
   4488 H          21.5801    4.7836   10.7826 H     748  UNL748      0.2090
   4489 O          22.7033    5.8370   14.8742 O.3   749  UNL749     -0.3982
   4490 C          21.9120    5.5239   13.7427 C.3   749  UNL749      0.0330
   4491 H          21.8003    4.4397   13.6636 H     749  UNL749      0.0521
   4492 H          22.3898    5.9183   12.8426 H     749  UNL749      0.0521
   4493 H          20.9271    5.9819   13.8602 H     749  UNL749      0.0521
   4494 H          23.5704    5.4175   14.7414 H     749  UNL749      0.2090
   4495 O          23.1694    5.5193   16.9628 O.3   750  UNL750     -0.3982
   4496 C          21.7536    5.5193   16.9628 C.3   750  UNL750      0.0330
   4497 H          21.3883    5.4305   15.9367 H     750  UNL750      0.0521
   4498 H          21.3884    6.4460   17.4121 H     750  UNL750      0.0521
   4499 H          21.3983    4.6683   17.5486 H     750  UNL750      0.0521
   4500 H          23.4551    6.2849   16.4358 H     750  UNL750      0.2090
   4501 O          21.9838    6.0512   20.7190 O.3   751  UNL751     -0.3982
   4502 C          22.1630    5.2194   19.5874 C.3   751  UNL751      0.0330
   4503 H          23.2143    4.9316   19.5084 H     751  UNL751      0.0521
   4504 H          21.8522    5.7553   18.6873 H     751  UNL751      0.0521
   4505 H          21.5499    4.3228   19.7049 H     751  UNL751      0.0521
   4506 H          22.5397    6.8379   20.5861 H     751  UNL751      0.2090
   4507 O          23.1694    5.5390   22.6116 O.3   752  UNL752     -0.3982
   4508 C          21.7536    5.5390   22.6116 C.3   752  UNL752      0.0330
   4509 H          21.3883    6.5367   22.3560 H     752  UNL752      0.0521
   4510 H          21.3884    5.2476   23.5994 H     752  UNL752      0.0521
   4511 H          21.3983    4.8217   21.8681 H     752  UNL752      0.0521
   4512 H          23.4551    6.1843   23.2806 H     752  UNL752      0.2090
   4513 O          22.7033    6.4794   25.4814 O.3   753  UNL753     -0.3982
   4514 C          21.9120    5.3118   25.6048 C.3   753  UNL753      0.0330
   4515 H          21.8003    5.0563   26.6615 H     753  UNL753      0.0521
   4516 H          22.3898    4.4885   25.0683 H     753  UNL753      0.0521
   4517 H          20.9271    5.5028   25.1723 H     753  UNL753      0.0521
   4518 H          23.5704    6.2796   25.8734 H     753  UNL753      0.2090
   4519 O          23.1694    5.7802   28.6355 O.3   754  UNL754     -0.3982
   4520 C          21.7536    5.7802   28.6355 C.3   754  UNL754      0.0330
   4521 H          21.3883    4.9186   29.1999 H     754  UNL754      0.0521
   4522 H          21.3884    5.7367   27.6066 H     754  UNL754      0.0521
   4523 H          21.3983    6.6993   29.1074 H     754  UNL754      0.0521
   4524 H          23.4551    4.9533   28.2110 H     754  UNL754      0.2090
   4525 O          21.2944    8.7082   -0.6090 O.3   755  UNL755     -0.3982
   4526 C          19.8786    8.7082   -0.6090 C.3   755  UNL755      0.0330
   4527 H          19.5133    7.9392    0.0762 H     755  UNL755      0.0521
   4528 H          19.5134    8.5135   -1.6203 H     755  UNL755      0.0521
   4529 H          19.5233    9.6868   -0.2778 H     755  UNL755      0.0521
   4530 H          21.5801    7.8278   -0.9070 H     755  UNL755      0.2090
   4531 O          21.2944    8.7082    2.3134 O.3   756  UNL756     -0.3982
   4532 C          19.8786    8.7082    2.3134 C.3   756  UNL756      0.0330
   4533 H          19.5133    7.9392    2.9986 H     756  UNL756      0.0521
   4534 H          19.5134    8.5135    1.3021 H     756  UNL756      0.0521
   4535 H          19.5233    9.6868    2.6446 H     756  UNL756      0.0521
   4536 H          21.5801    7.8278    2.0154 H     756  UNL756      0.2090
   4537 O          21.2944    8.7082    5.2358 O.3   757  UNL757     -0.3982
   4538 C          19.8786    8.7082    5.2358 C.3   757  UNL757      0.0330
   4539 H          19.5133    7.9392    5.9210 H     757  UNL757      0.0521
   4540 H          19.5134    8.5135    4.2245 H     757  UNL757      0.0521
   4541 H          19.5233    9.6868    5.5670 H     757  UNL757      0.0521
   4542 H          21.5801    7.8278    4.9378 H     757  UNL757      0.2090
   4543 O          21.2944    8.7082    8.1582 O.3   758  UNL758     -0.3982
   4544 C          19.8786    8.7082    8.1582 C.3   758  UNL758      0.0330
   4545 H          19.5133    7.9392    8.8434 H     758  UNL758      0.0521
   4546 H          19.5134    8.5135    7.1469 H     758  UNL758      0.0521
   4547 H          19.5233    9.6868    8.4894 H     758  UNL758      0.0521
   4548 H          21.5801    7.8278    7.8602 H     758  UNL758      0.2090
   4549 O          21.2944    8.7082   11.0806 O.3   759  UNL759     -0.3982
   4550 C          19.8786    8.7082   11.0806 C.3   759  UNL759      0.0330
   4551 H          19.5133    7.9392   11.7658 H     759  UNL759      0.0521
   4552 H          19.5134    8.5135   10.0693 H     759  UNL759      0.0521
   4553 H          19.5233    9.6868   11.4118 H     759  UNL759      0.0521
   4554 H          21.5801    7.8278   10.7826 H     759  UNL759      0.2090
   4555 O          21.2944    8.7082   14.0029 O.3   760  UNL760     -0.3982
   4556 C          19.8786    8.7082   14.0029 C.3   760  UNL760      0.0330
   4557 H          19.5133    7.9392   14.6881 H     760  UNL760      0.0521
   4558 H          19.5134    8.5135   12.9916 H     760  UNL760      0.0521
   4559 H          19.5233    9.6868   14.3341 H     760  UNL760      0.0521
   4560 H          21.5801    7.8278   13.7049 H     760  UNL760      0.2090
   4561 O          21.2944    8.7082   16.9253 O.3   761  UNL761     -0.3982
   4562 C          19.8786    8.7082   16.9253 C.3   761  UNL761      0.0330
   4563 H          19.5133    7.9392   17.6105 H     761  UNL761      0.0521
   4564 H          19.5134    8.5135   15.9140 H     761  UNL761      0.0521
   4565 H          19.5233    9.6868   17.2565 H     761  UNL761      0.0521
   4566 H          21.5801    7.8278   16.6273 H     761  UNL761      0.2090
   4567 O          21.2944    8.7082   19.8477 O.3   762  UNL762     -0.3982
   4568 C          19.8786    8.7082   19.8477 C.3   762  UNL762      0.0330
   4569 H          19.5133    7.9392   20.5329 H     762  UNL762      0.0521
   4570 H          19.5134    8.5135   18.8364 H     762  UNL762      0.0521
   4571 H          19.5233    9.6868   20.1789 H     762  UNL762      0.0521
   4572 H          21.5801    7.8278   19.5497 H     762  UNL762      0.2090
   4573 O          21.2944    8.7082   22.7701 O.3   763  UNL763     -0.3982
   4574 C          19.8786    8.7082   22.7701 C.3   763  UNL763      0.0330
   4575 H          19.5133    7.9392   23.4552 H     763  UNL763      0.0521
   4576 H          19.5134    8.5135   21.7588 H     763  UNL763      0.0521
   4577 H          19.5233    9.6868   23.1012 H     763  UNL763      0.0521
   4578 H          21.5801    7.8278   22.4720 H     763  UNL763      0.2090
   4579 O          21.2944    8.7082   25.6924 O.3   764  UNL764     -0.3982
   4580 C          19.8786    8.7082   25.6924 C.3   764  UNL764      0.0330
   4581 H          19.5133    7.9392   26.3776 H     764  UNL764      0.0521
   4582 H          19.5134    8.5135   24.6811 H     764  UNL764      0.0521
   4583 H          19.5233    9.6868   26.0236 H     764  UNL764      0.0521
   4584 H          21.5801    7.8278   25.3944 H     764  UNL764      0.2090
   4585 O          21.2944    8.7082   28.6148 O.3   765  UNL765     -0.3982
   4586 C          19.8786    8.7082   28.6148 C.3   765  UNL765      0.0330
   4587 H          19.5133    7.9392   29.3000 H     765  UNL765      0.0521
   4588 H          19.5134    8.5135   27.6035 H     765  UNL765      0.0521
   4589 H          19.5233    9.6868   28.9460 H     765  UNL765      0.0521
   4590 H          21.5801    7.8278   28.3168 H     765  UNL765      0.2090
   4591 O          19.4569   12.2599    0.3134 O.3   766  UNL766     -0.3982
   4592 C          20.3042   11.1256    0.3134 C.3   766  UNL766      0.0330
   4593 H          21.1389   11.2932    0.9986 H     766  UNL766      0.0521
   4594 H          20.6787   10.9496   -0.6979 H     766  UNL766      0.0521
   4595 H          19.7328   10.2553    0.6446 H     766  UNL766      0.0521
   4596 H          19.9913   13.0157    0.0154 H     766  UNL766      0.2090
   4597 O          21.2944   11.7525    3.2358 O.3   767  UNL767     -0.3982
   4598 C          19.8786   11.7525    3.2358 C.3   767  UNL767      0.0330
   4599 H          19.5133   10.9835    3.9210 H     767  UNL767      0.0521
   4600 H          19.5134   11.5578    2.2245 H     767  UNL767      0.0521
   4601 H          19.5233   12.7311    3.5670 H     767  UNL767      0.0521
   4602 H          21.5801   10.8721    2.9378 H     767  UNL767      0.2090
   4603 O          21.2944   11.7525    6.1582 O.3   768  UNL768     -0.3982
   4604 C          19.8786   11.7525    6.1582 C.3   768  UNL768      0.0330
   4605 H          19.5133   10.9835    6.8434 H     768  UNL768      0.0521
   4606 H          19.5134   11.5578    5.1469 H     768  UNL768      0.0521
   4607 H          19.5233   12.7311    6.4894 H     768  UNL768      0.0521
   4608 H          21.5801   10.8721    5.8602 H     768  UNL768      0.2090
   4609 O          21.2944   11.7525    9.0806 O.3   769  UNL769     -0.3982
   4610 C          19.8786   11.7525    9.0806 C.3   769  UNL769      0.0330
   4611 H          19.5133   10.9835    9.7658 H     769  UNL769      0.0521
   4612 H          19.5134   11.5578    8.0693 H     769  UNL769      0.0521
   4613 H          19.5233   12.7311    9.4118 H     769  UNL769      0.0521
   4614 H          21.5801   10.8721    8.7826 H     769  UNL769      0.2090
   4615 O          21.2944   11.7525   12.0029 O.3   770  UNL770     -0.3982
   4616 C          19.8786   11.7525   12.0029 C.3   770  UNL770      0.0330
   4617 H          19.5133   10.9835   12.6881 H     770  UNL770      0.0521
   4618 H          19.5134   11.5578   10.9916 H     770  UNL770      0.0521
   4619 H          19.5233   12.7311   12.3341 H     770  UNL770      0.0521
   4620 H          21.5801   10.8721   11.7049 H     770  UNL770      0.2090
   4621 O          21.2944   11.7525   14.9253 O.3   771  UNL771     -0.3982
   4622 C          19.8786   11.7525   14.9253 C.3   771  UNL771      0.0330
   4623 H          19.5133   10.9835   15.6105 H     771  UNL771      0.0521
   4624 H          19.5134   11.5578   13.9140 H     771  UNL771      0.0521
   4625 H          19.5233   12.7311   15.2565 H     771  UNL771      0.0521
   4626 H          21.5801   10.8721   14.6273 H     771  UNL771      0.2090
   4627 O          22.7291   12.5277   18.0747 O.3   772  UNL772     -0.3982
   4628 C          22.1828   11.3283   17.5574 C.3   772  UNL772      0.0330
   4629 H          21.1185   11.4698   17.3534 H     772  UNL772      0.0521
   4630 H          22.3219   10.5217   18.2812 H     772  UNL772      0.0521
   4631 H          22.6990   11.0744   16.6286 H     772  UNL772      0.0521
   4632 H          22.2516   12.7273   18.8979 H     772  UNL772      0.2090
   4633 O          23.2944   11.4828   22.8076 O.3   773  UNL773     -0.3982
   4634 C          21.8786   11.4828   22.8076 C.3   773  UNL773      0.0330
   4635 H          21.5133   11.3940   21.7814 H     773  UNL773      0.0521
   4636 H          21.5134   12.4095   23.2568 H     773  UNL773      0.0521
   4637 H          21.5233   10.6318   23.3934 H     773  UNL773      0.0521
   4638 H          23.5801   12.2484   22.2806 H     773  UNL773      0.2090
   4639 O          23.2944   11.4828   25.7300 O.3   774  UNL774     -0.3982
   4640 C          21.8786   11.4828   25.7300 C.3   774  UNL774      0.0330
   4641 H          21.5133   11.3940   24.7038 H     774  UNL774      0.0521
   4642 H          21.5134   12.4095   26.1792 H     774  UNL774      0.0521
   4643 H          21.5233   10.6318   26.3158 H     774  UNL774      0.0521
   4644 H          23.5801   12.2484   25.2030 H     774  UNL774      0.2090
   4645 O          23.1694   11.8240   28.4437 O.3   775  UNL775     -0.3982
   4646 C          21.7536   11.8240   28.4437 C.3   775  UNL775      0.0330
   4647 H          21.3883   12.2396   29.3861 H     775  UNL775      0.0521
   4648 H          21.3884   10.8018   28.3181 H     775  UNL775      0.0521
   4649 H          21.3983   12.4400   27.6143 H     775  UNL775      0.0521
   4650 H          23.4551   11.2698   29.1899 H     775  UNL775      0.2090
   4651 O          21.2944   14.7967   -0.6090 O.3   776  UNL776     -0.3982
   4652 C          19.8786   14.7967   -0.6090 C.3   776  UNL776      0.0330
   4653 H          19.5133   14.0277    0.0762 H     776  UNL776      0.0521
   4654 H          19.5134   14.6020   -1.6203 H     776  UNL776      0.0521
   4655 H          19.5233   15.7753   -0.2778 H     776  UNL776      0.0521
   4656 H          21.5801   13.9163   -0.9070 H     776  UNL776      0.2090
   4657 O          21.2944   14.7967    2.3134 O.3   777  UNL777     -0.3982
   4658 C          19.8786   14.7967    2.3134 C.3   777  UNL777      0.0330
   4659 H          19.5133   14.0277    2.9986 H     777  UNL777      0.0521
   4660 H          19.5134   14.6020    1.3021 H     777  UNL777      0.0521
   4661 H          19.5233   15.7753    2.6446 H     777  UNL777      0.0521
   4662 H          21.5801   13.9163    2.0154 H     777  UNL777      0.2090
   4663 O          21.2944   14.7967    5.2358 O.3   778  UNL778     -0.3982
   4664 C          19.8786   14.7967    5.2358 C.3   778  UNL778      0.0330
   4665 H          19.5133   14.0277    5.9210 H     778  UNL778      0.0521
   4666 H          19.5134   14.6020    4.2245 H     778  UNL778      0.0521
   4667 H          19.5233   15.7753    5.5670 H     778  UNL778      0.0521
   4668 H          21.5801   13.9163    4.9378 H     778  UNL778      0.2090
   4669 O          21.2944   14.7967    8.1582 O.3   779  UNL779     -0.3982
   4670 C          19.8786   14.7967    8.1582 C.3   779  UNL779      0.0330
   4671 H          19.5133   14.0277    8.8434 H     779  UNL779      0.0521
   4672 H          19.5134   14.6020    7.1469 H     779  UNL779      0.0521
   4673 H          19.5233   15.7753    8.4894 H     779  UNL779      0.0521
   4674 H          21.5801   13.9163    7.8602 H     779  UNL779      0.2090
   4675 O          21.2944   14.7967   11.0806 O.3   780  UNL780     -0.3982
   4676 C          19.8786   14.7967   11.0806 C.3   780  UNL780      0.0330
   4677 H          19.5133   14.0277   11.7658 H     780  UNL780      0.0521
   4678 H          19.5134   14.6020   10.0693 H     780  UNL780      0.0521
   4679 H          19.5233   15.7753   11.4118 H     780  UNL780      0.0521
   4680 H          21.5801   13.9163   10.7826 H     780  UNL780      0.2090
   4681 O          21.2944   14.7967   14.0029 O.3   781  UNL781     -0.3982
   4682 C          19.8786   14.7967   14.0029 C.3   781  UNL781      0.0330
   4683 H          19.5133   14.0277   14.6881 H     781  UNL781      0.0521
   4684 H          19.5134   14.6020   12.9916 H     781  UNL781      0.0521
   4685 H          19.5233   15.7753   14.3341 H     781  UNL781      0.0521
   4686 H          21.5801   13.9163   13.7049 H     781  UNL781      0.2090
   4687 O          21.2944   14.7967   16.9253 O.3   782  UNL782     -0.3982
   4688 C          19.8786   14.7967   16.9253 C.3   782  UNL782      0.0330
   4689 H          19.5133   14.0277   17.6105 H     782  UNL782      0.0521
   4690 H          19.5134   14.6020   15.9140 H     782  UNL782      0.0521
   4691 H          19.5233   15.7753   17.2565 H     782  UNL782      0.0521
   4692 H          21.5801   13.9163   16.6273 H     782  UNL782      0.2090
   4693 O          20.7575   15.0298   18.9333 O.3   783  UNL783     -0.3982
   4694 C          19.9663   14.7168   20.0649 C.3   783  UNL783      0.0330
   4695 H          20.6162   14.4759   20.9098 H     783  UNL783      0.0521
   4696 H          19.3199   13.8663   19.8346 H     783  UNL783      0.0521
   4697 H          19.3495   15.5824   20.3176 H     783  UNL783      0.0521
   4698 H          21.2934   14.2435   18.7331 H     783  UNL783      0.2090
   4699 O          21.2944   14.6052   22.5765 O.3   784  UNL784     -0.3982
   4700 C          19.8786   14.6052   22.5765 C.3   784  UNL784      0.0330
   4701 H          19.5133   15.6144   22.7825 H     784  UNL784      0.0521
   4702 H          19.5134   13.9116   23.3377 H     784  UNL784      0.0521
   4703 H          19.5233   14.2849   21.5942 H     784  UNL784      0.0521
   4704 H          21.5801   14.8934   23.4601 H     784  UNL784      0.2090
   4705 O          21.2944   14.7967   25.6924 O.3   785  UNL785     -0.3982
   4706 C          19.8786   14.7967   25.6924 C.3   785  UNL785      0.0330
   4707 H          19.5133   14.0277   26.3776 H     785  UNL785      0.0521
   4708 H          19.5134   14.6020   24.6811 H     785  UNL785      0.0521
   4709 H          19.5233   15.7753   26.0236 H     785  UNL785      0.0521
   4710 H          21.5801   13.9163   25.3944 H     785  UNL785      0.2090
   4711 O          21.2944   14.7967   28.6148 O.3   786  UNL786     -0.3982
   4712 C          19.8786   14.7967   28.6148 C.3   786  UNL786      0.0330
   4713 H          19.5133   14.0277   29.3000 H     786  UNL786      0.0521
   4714 H          19.5134   14.6020   27.6035 H     786  UNL786      0.0521
   4715 H          19.5233   15.7753   28.9460 H     786  UNL786      0.0521
   4716 H          21.5801   13.9163   28.3168 H     786  UNL786      0.2090
   4717 O          21.2944   17.8410   -0.6090 O.3   787  UNL787     -0.3982
   4718 C          19.8786   17.8410   -0.6090 C.3   787  UNL787      0.0330
   4719 H          19.5133   17.0720    0.0762 H     787  UNL787      0.0521
   4720 H          19.5134   17.6463   -1.6203 H     787  UNL787      0.0521
   4721 H          19.5233   18.8196   -0.2778 H     787  UNL787      0.0521
   4722 H          21.5801   16.9606   -0.9070 H     787  UNL787      0.2090
   4723 O          21.2944   17.8410    2.3134 O.3   788  UNL788     -0.3982
   4724 C          19.8786   17.8410    2.3134 C.3   788  UNL788      0.0330
   4725 H          19.5133   17.0720    2.9986 H     788  UNL788      0.0521
   4726 H          19.5134   17.6463    1.3021 H     788  UNL788      0.0521
   4727 H          19.5233   18.8196    2.6446 H     788  UNL788      0.0521
   4728 H          21.5801   16.9606    2.0154 H     788  UNL788      0.2090
   4729 O          21.2944   17.8410    5.2358 O.3   789  UNL789     -0.3982
   4730 C          19.8786   17.8410    5.2358 C.3   789  UNL789      0.0330
   4731 H          19.5133   17.0720    5.9210 H     789  UNL789      0.0521
   4732 H          19.5134   17.6463    4.2245 H     789  UNL789      0.0521
   4733 H          19.5233   18.8196    5.5670 H     789  UNL789      0.0521
   4734 H          21.5801   16.9606    4.9378 H     789  UNL789      0.2090
   4735 O          21.2944   17.8410    8.1582 O.3   790  UNL790     -0.3982
   4736 C          19.8786   17.8410    8.1582 C.3   790  UNL790      0.0330
   4737 H          19.5133   17.0720    8.8434 H     790  UNL790      0.0521
   4738 H          19.5134   17.6463    7.1469 H     790  UNL790      0.0521
   4739 H          19.5233   18.8196    8.4894 H     790  UNL790      0.0521
   4740 H          21.5801   16.9606    7.8602 H     790  UNL790      0.2090
   4741 O          23.2944   17.5713   11.1181 O.3   791  UNL791     -0.3982
   4742 C          21.8786   17.5713   11.1181 C.3   791  UNL791      0.0330
   4743 H          21.5133   17.4825   10.0919 H     791  UNL791      0.0521
   4744 H          21.5134   18.4980   11.5673 H     791  UNL791      0.0521
   4745 H          21.5233   16.7203   11.7039 H     791  UNL791      0.0521
   4746 H          23.5801   18.3369   10.5911 H     791  UNL791      0.2090
   4747 O          23.2944   17.5713   14.0405 O.3   792  UNL792     -0.3982
   4748 C          21.8786   17.5713   14.0405 C.3   792  UNL792      0.0330
   4749 H          21.5133   17.4825   13.0143 H     792  UNL792      0.0521
   4750 H          21.5134   18.4980   14.4897 H     792  UNL792      0.0521
   4751 H          21.5233   16.7203   14.6263 H     792  UNL792      0.0521
   4752 H          23.5801   18.3369   13.5135 H     792  UNL792      0.2090
   4753 O          23.2944   17.5713   16.9628 O.3   793  UNL793     -0.3982
   4754 C          21.8786   17.5713   16.9628 C.3   793  UNL793      0.0330
   4755 H          21.5133   17.4825   15.9367 H     793  UNL793      0.0521
   4756 H          21.5134   18.4980   17.4121 H     793  UNL793      0.0521
   4757 H          21.5233   16.7203   17.5486 H     793  UNL793      0.0521
   4758 H          23.5801   18.3369   16.4358 H     793  UNL793      0.2090
   4759 O          21.2944   17.8410   19.8477 O.3   794  UNL794     -0.3982
   4760 C          19.8786   17.8410   19.8477 C.3   794  UNL794      0.0330
   4761 H          19.5133   17.0720   20.5329 H     794  UNL794      0.0521
   4762 H          19.5134   17.6463   18.8364 H     794  UNL794      0.0521
   4763 H          19.5233   18.8196   20.1789 H     794  UNL794      0.0521
   4764 H          21.5801   16.9606   19.5497 H     794  UNL794      0.2090
   4765 O          21.2944   17.8410   22.7701 O.3   795  UNL795     -0.3982
   4766 C          19.8786   17.8410   22.7701 C.3   795  UNL795      0.0330
   4767 H          19.5133   17.0720   23.4552 H     795  UNL795      0.0521
   4768 H          19.5134   17.6463   21.7588 H     795  UNL795      0.0521
   4769 H          19.5233   18.8196   23.1012 H     795  UNL795      0.0521
   4770 H          21.5801   16.9606   22.4720 H     795  UNL795      0.2090
   4771 O          21.2944   17.8410   25.6924 O.3   796  UNL796     -0.3982
   4772 C          19.8786   17.8410   25.6924 C.3   796  UNL796      0.0330
   4773 H          19.5133   17.0720   26.3776 H     796  UNL796      0.0521
   4774 H          19.5134   17.6463   24.6811 H     796  UNL796      0.0521
   4775 H          19.5233   18.8196   26.0236 H     796  UNL796      0.0521
   4776 H          21.5801   16.9606   25.3944 H     796  UNL796      0.2090
   4777 O          21.2944   17.8410   28.6148 O.3   797  UNL797     -0.3982
   4778 C          19.8786   17.8410   28.6148 C.3   797  UNL797      0.0330
   4779 H          19.5133   17.0720   29.3000 H     797  UNL797      0.0521
   4780 H          19.5134   17.6463   27.6035 H     797  UNL797      0.0521
   4781 H          19.5233   18.8196   28.9460 H     797  UNL797      0.0521
   4782 H          21.5801   16.9606   28.3168 H     797  UNL797      0.2090
   4783 O          21.2944   20.8852   -0.6090 O.3   798  UNL798     -0.3982
   4784 C          19.8786   20.8852   -0.6090 C.3   798  UNL798      0.0330
   4785 H          19.5133   20.1162    0.0762 H     798  UNL798      0.0521
   4786 H          19.5134   20.6905   -1.6203 H     798  UNL798      0.0521
   4787 H          19.5233   21.8638   -0.2778 H     798  UNL798      0.0521
   4788 H          21.5801   20.0048   -0.9070 H     798  UNL798      0.2090
   4789 O          23.2944   20.6155    2.3510 O.3   799  UNL799     -0.3982
   4790 C          21.8786   20.6155    2.3510 C.3   799  UNL799      0.0330
   4791 H          21.5133   20.5268    1.3248 H     799  UNL799      0.0521
   4792 H          21.5134   21.5422    2.8002 H     799  UNL799      0.0521
   4793 H          21.5233   19.7645    2.9368 H     799  UNL799      0.0521
   4794 H          23.5801   21.3812    1.8240 H     799  UNL799      0.2090
   4795 O          23.2944   20.6155    5.2733 O.3   800  UNL800     -0.3982
   4796 C          21.8786   20.6155    5.2733 C.3   800  UNL800      0.0330
   4797 H          21.5133   20.5268    4.2472 H     800  UNL800      0.0521
   4798 H          21.5134   21.5422    5.7226 H     800  UNL800      0.0521
   4799 H          21.5233   19.7645    5.8591 H     800  UNL800      0.0521
   4800 H          23.5801   21.3812    4.7463 H     800  UNL800      0.2090
   4801 O          22.7033   21.0582    9.0295 O.3   801  UNL801     -0.3982
   4802 C          21.9120   20.7452    7.8979 C.3   801  UNL801      0.0330
   4803 H          21.8003   19.6609    7.8189 H     801  UNL801      0.0521
   4804 H          22.3898   21.1396    6.9978 H     801  UNL801      0.0521
   4805 H          20.9271   21.2032    8.0154 H     801  UNL801      0.0521
   4806 H          23.5704   20.6387    8.8966 H     801  UNL801      0.2090
   4807 O          23.2944   20.6937   10.8870 O.3   802  UNL802     -0.3982
   4808 C          21.8786   20.6937   10.8870 C.3   802  UNL802      0.0330
   4809 H          21.5133   21.7029   11.0930 H     802  UNL802      0.0521
   4810 H          21.5134   20.0001   11.6482 H     802  UNL802      0.0521
   4811 H          21.5233   20.3734    9.9047 H     802  UNL802      0.0521
   4812 H          23.5801   20.9819   11.7706 H     802  UNL802      0.2090
   4813 O          23.2944   20.8852   14.0029 O.3   803  UNL803     -0.3982
   4814 C          21.8786   20.8852   14.0029 C.3   803  UNL803      0.0330
   4815 H          21.5133   20.1162   14.6881 H     803  UNL803      0.0521
   4816 H          21.5134   20.6905   12.9916 H     803  UNL803      0.0521
   4817 H          21.5233   21.8638   14.3341 H     803  UNL803      0.0521
   4818 H          23.5801   20.0048   13.7049 H     803  UNL803      0.2090
   4819 O          21.2944   20.8852   16.9253 O.3   804  UNL804     -0.3982
   4820 C          19.8786   20.8852   16.9253 C.3   804  UNL804      0.0330
   4821 H          19.5133   20.1162   17.6105 H     804  UNL804      0.0521
   4822 H          19.5134   20.6905   15.9140 H     804  UNL804      0.0521
   4823 H          19.5233   21.8638   17.2565 H     804  UNL804      0.0521
   4824 H          21.5801   20.0048   16.6273 H     804  UNL804      0.2090
   4825 O          21.2944   20.8852   19.8477 O.3   805  UNL805     -0.3982
   4826 C          19.8786   20.8852   19.8477 C.3   805  UNL805      0.0330
   4827 H          19.5133   20.1162   20.5329 H     805  UNL805      0.0521
   4828 H          19.5134   20.6905   18.8364 H     805  UNL805      0.0521
   4829 H          19.5233   21.8638   20.1789 H     805  UNL805      0.0521
   4830 H          21.5801   20.0048   19.5497 H     805  UNL805      0.2090
   4831 O          23.2944   20.6155   22.8076 O.3   806  UNL806     -0.3982
   4832 C          21.8786   20.6155   22.8076 C.3   806  UNL806      0.0330
   4833 H          21.5133   20.5268   21.7814 H     806  UNL806      0.0521
   4834 H          21.5134   21.5422   23.2568 H     806  UNL806      0.0521
   4835 H          21.5233   19.7645   23.3934 H     806  UNL806      0.0521
   4836 H          23.5801   21.3812   22.2806 H     806  UNL806      0.2090
   4837 O          23.2944   20.6155   25.7300 O.3   807  UNL807     -0.3982
   4838 C          21.8786   20.6155   25.7300 C.3   807  UNL807      0.0330
   4839 H          21.5133   20.5268   24.7038 H     807  UNL807      0.0521
   4840 H          21.5134   21.5422   26.1792 H     807  UNL807      0.0521
   4841 H          21.5233   19.7645   26.3158 H     807  UNL807      0.0521
   4842 H          23.5801   21.3812   25.2030 H     807  UNL807      0.2090
   4843 O          21.4514   19.9932   28.6148 O.3   808  UNL808     -0.3982
   4844 C          22.7092   20.6433   28.6148 C.3   808  UNL808      0.0330
   4845 H          22.6806   21.4941   29.3000 H     808  UNL808      0.0521
   4846 H          22.9442   20.9839   27.6035 H     808  UNL808      0.0521
   4847 H          23.4741   19.9371   28.9460 H     808  UNL808      0.0521
   4848 H          20.7934   20.6442   28.3168 H     808  UNL808      0.2090
   4849 O          22.2662   23.2068    0.2623 O.3   809  UNL809     -0.3982
   4850 C          22.3655   24.0519   -0.8692 C.3   809  UNL809      0.0330
   4851 H          21.4636   24.6640   -0.9482 H     809  UNL809      0.0521
   4852 H          22.4864   23.4443   -1.7693 H     809  UNL809      0.0521
   4853 H          23.2354   24.7023   -0.7517 H     809  UNL809      0.0521
   4854 H          21.4859   22.6420    0.1295 H     809  UNL809      0.2090
   4855 O          23.2944   23.9203    2.1943 O.3   810  UNL810     -0.3982
   4856 C          21.8786   23.9203    2.1943 C.3   810  UNL810      0.0330
   4857 H          21.5133   23.8824    3.2236 H     810  UNL810      0.0521
   4858 H          21.5134   23.0558    1.6347 H     810  UNL810      0.0521
   4859 H          21.5233   24.8368    1.7174 H     810  UNL810      0.0521
   4860 H          23.5801   23.0958    2.6233 H     810  UNL810      0.2090
   4861 O          21.2944   23.9295    5.2358 O.3   811  UNL811     -0.3982
   4862 C          19.8786   23.9295    5.2358 C.3   811  UNL811      0.0330
   4863 H          19.5133   23.1605    5.9210 H     811  UNL811      0.0521
   4864 H          19.5134   23.7348    4.2245 H     811  UNL811      0.0521
   4865 H          19.5233   24.9081    5.5670 H     811  UNL811      0.0521
   4866 H          21.5801   23.0491    4.9378 H     811  UNL811      0.2090
   4867 O          21.2944   23.9295    8.1582 O.3   812  UNL812     -0.3982
   4868 C          19.8786   23.9295    8.1582 C.3   812  UNL812      0.0330
   4869 H          19.5133   23.1605    8.8434 H     812  UNL812      0.0521
   4870 H          19.5134   23.7348    7.1469 H     812  UNL812      0.0521
   4871 H          19.5233   24.9081    8.4894 H     812  UNL812      0.0521
   4872 H          21.5801   23.0491    7.8602 H     812  UNL812      0.2090
   4873 O          23.2944   23.7380   10.8870 O.3   813  UNL813     -0.3982
   4874 C          21.8786   23.7380   10.8870 C.3   813  UNL813      0.0330
   4875 H          21.5133   24.7472   11.0930 H     813  UNL813      0.0521
   4876 H          21.5134   23.0443   11.6482 H     813  UNL813      0.0521
   4877 H          21.5233   23.4177    9.9047 H     813  UNL813      0.0521
   4878 H          23.5801   24.0261   11.7706 H     813  UNL813      0.2090
   4879 O          23.2944   23.9295   14.0029 O.3   814  UNL814     -0.3982
   4880 C          21.8786   23.9295   14.0029 C.3   814  UNL814      0.0330
   4881 H          21.5133   23.1605   14.6881 H     814  UNL814      0.0521
   4882 H          21.5134   23.7348   12.9916 H     814  UNL814      0.0521
   4883 H          21.5233   24.9081   14.3341 H     814  UNL814      0.0521
   4884 H          23.5801   23.0491   13.7049 H     814  UNL814      0.2090
   4885 O          21.8155   23.2477   17.6078 O.3   815  UNL815     -0.3982
   4886 C          22.4661   23.7961   16.4763 C.3   815  UNL815      0.0330
   4887 H          22.8977   24.7656   16.7373 H     815  UNL815      0.0521
   4888 H          21.7465   23.9129   15.6622 H     815  UNL815      0.0521
   4889 H          23.2626   23.1181   16.1610 H     815  UNL815      0.0521
   4890 H          21.1144   23.8708   17.8643 H     815  UNL815      0.2090
   4891 O          21.2944   23.9295   19.8477 O.3   816  UNL816     -0.3982
   4892 C          19.8786   23.9295   19.8477 C.3   816  UNL816      0.0330
   4893 H          19.5133   23.1605   20.5329 H     816  UNL816      0.0521
   4894 H          19.5134   23.7348   18.8364 H     816  UNL816      0.0521
   4895 H          19.5233   24.9081   20.1789 H     816  UNL816      0.0521
   4896 H          21.5801   23.0491   19.5497 H     816  UNL816      0.2090
   4897 O          21.2944   23.9295   22.7701 O.3   817  UNL817     -0.3982
   4898 C          19.8786   23.9295   22.7701 C.3   817  UNL817      0.0330
   4899 H          19.5133   23.1605   23.4552 H     817  UNL817      0.0521
   4900 H          19.5134   23.7348   21.7588 H     817  UNL817      0.0521
   4901 H          19.5233   24.9081   23.1012 H     817  UNL817      0.0521
   4902 H          21.5801   23.0491   22.4720 H     817  UNL817      0.2090
   4903 O          21.2944   23.9295   25.6924 O.3   818  UNL818     -0.3982
   4904 C          19.8786   23.9295   25.6924 C.3   818  UNL818      0.0330
   4905 H          19.5133   23.1605   26.3776 H     818  UNL818      0.0521
   4906 H          19.5134   23.7348   24.6811 H     818  UNL818      0.0521
   4907 H          19.5233   24.9081   26.0236 H     818  UNL818      0.0521
   4908 H          21.5801   23.0491   25.3944 H     818  UNL818      0.2090
   4909 O          21.2944   23.9295   28.6148 O.3   819  UNL819     -0.3982
   4910 C          19.8786   23.9295   28.6148 C.3   819  UNL819      0.0330
   4911 H          19.5133   23.1605   29.3000 H     819  UNL819      0.0521
   4912 H          19.5134   23.7348   27.6035 H     819  UNL819      0.0521
   4913 H          19.5233   24.9081   28.9460 H     819  UNL819      0.0521
   4914 H          21.5801   23.0491   28.3168 H     819  UNL819      0.2090
   4915 O          21.2944   26.9737   -0.6090 O.3   820  UNL820     -0.3982
   4916 C          19.8786   26.9737   -0.6090 C.3   820  UNL820      0.0330
   4917 H          19.5133   26.2047    0.0762 H     820  UNL820      0.0521
   4918 H          19.5134   26.7790   -1.6203 H     820  UNL820      0.0521
   4919 H          19.5233   27.9523   -0.2778 H     820  UNL820      0.0521
   4920 H          21.5801   26.0933   -0.9070 H     820  UNL820      0.2090
   4921 O          23.2944   26.9737    2.3134 O.3   821  UNL821     -0.3982
   4922 C          21.8786   26.9737    2.3134 C.3   821  UNL821      0.0330
   4923 H          21.5133   26.2047    2.9986 H     821  UNL821      0.0521
   4924 H          21.5134   26.7790    1.3021 H     821  UNL821      0.0521
   4925 H          21.5233   27.9523    2.6446 H     821  UNL821      0.0521
   4926 H          23.5801   26.0933    2.0154 H     821  UNL821      0.2090
   4927 O          22.4235   27.4680    6.0433 O.3   822  UNL822     -0.3982
   4928 C          21.9851   26.7387    4.9118 C.3   822  UNL822      0.0330
   4929 H          21.8900   25.6817    5.1728 H     822  UNL822      0.0521
   4930 H          22.7038   26.8607    4.0977 H     822  UNL822      0.0521
   4931 H          21.0122   27.1229    4.5965 H     822  UNL822      0.0521
   4932 H          23.2883   27.1049    6.2998 H     822  UNL822      0.2090
   4933 O          23.2944   26.7040    8.1957 O.3   823  UNL823     -0.3982
   4934 C          21.8786   26.7040    8.1957 C.3   823  UNL823      0.0330
   4935 H          21.5133   26.6153    7.1696 H     823  UNL823      0.0521
   4936 H          21.5134   27.6308    8.6449 H     823  UNL823      0.0521
   4937 H          21.5233   25.8530    8.7815 H     823  UNL823      0.0521
   4938 H          23.5801   27.4697    7.6687 H     823  UNL823      0.2090
   4939 O          23.2944   26.9737   11.0806 O.3   824  UNL824     -0.3982
   4940 C          21.8786   26.9737   11.0806 C.3   824  UNL824      0.0330
   4941 H          21.5133   26.2047   11.7658 H     824  UNL824      0.0521
   4942 H          21.5134   26.7790   10.0693 H     824  UNL824      0.0521
   4943 H          21.5233   27.9523   11.4118 H     824  UNL824      0.0521
   4944 H          23.5801   26.0933   10.7826 H     824  UNL824      0.2090
   4945 O          23.2944   26.9737   14.0029 O.3   825  UNL825     -0.3982
   4946 C          21.8786   26.9737   14.0029 C.3   825  UNL825      0.0330
   4947 H          21.5133   26.2047   14.6881 H     825  UNL825      0.0521
   4948 H          21.5134   26.7790   12.9916 H     825  UNL825      0.0521
   4949 H          21.5233   27.9523   14.3341 H     825  UNL825      0.0521
   4950 H          23.5801   26.0933   13.7049 H     825  UNL825      0.2090
   4951 O          23.2944   26.9737   16.9253 O.3   826  UNL826     -0.3982
   4952 C          21.8786   26.9737   16.9253 C.3   826  UNL826      0.0330
   4953 H          21.5133   26.2047   17.6105 H     826  UNL826      0.0521
   4954 H          21.5134   26.7790   15.9140 H     826  UNL826      0.0521
   4955 H          21.5233   27.9523   17.2565 H     826  UNL826      0.0521
   4956 H          23.5801   26.0933   16.6273 H     826  UNL826      0.2090
   4957 O          21.2944   26.9737   19.8477 O.3   827  UNL827     -0.3982
   4958 C          19.8786   26.9737   19.8477 C.3   827  UNL827      0.0330
   4959 H          19.5133   26.2047   20.5329 H     827  UNL827      0.0521
   4960 H          19.5134   26.7790   18.8364 H     827  UNL827      0.0521
   4961 H          19.5233   27.9523   20.1789 H     827  UNL827      0.0521
   4962 H          21.5801   26.0933   19.5497 H     827  UNL827      0.2090
   4963 O          23.1694   27.0191   22.8591 O.3   828  UNL828     -0.3982
   4964 C          21.7536   27.0191   22.8591 C.3   828  UNL828      0.0330
   4965 H          21.3883   25.9923   22.7786 H     828  UNL828      0.0521
   4966 H          21.3884   27.6141   22.0185 H     828  UNL828      0.0521
   4967 H          21.3983   27.4576   23.7946 H     828  UNL828      0.0521
   4968 H          23.4551   26.6246   22.0175 H     828  UNL828      0.2090
   4969 O          22.7033   27.7891   25.4814 O.3   829  UNL829     -0.3982
   4970 C          21.9120   26.6216   25.6048 C.3   829  UNL829      0.0330
   4971 H          21.8003   26.3660   26.6615 H     829  UNL829      0.0521
   4972 H          22.3898   25.7982   25.0683 H     829  UNL829      0.0521
   4973 H          20.9271   26.8125   25.1723 H     829  UNL829      0.0521
   4974 H          23.5704   27.5893   25.8734 H     829  UNL829      0.2090
   4975 O          23.1694   27.0899   28.6355 O.3   830  UNL830     -0.3982
   4976 C          21.7536   27.0899   28.6355 C.3   830  UNL830      0.0330
   4977 H          21.3883   26.2283   29.1999 H     830  UNL830      0.0521
   4978 H          21.3884   27.0464   27.6066 H     830  UNL830      0.0521
   4979 H          21.3983   28.0090   29.1074 H     830  UNL830      0.0521
   4980 H          23.4551   26.2631   28.2110 H     830  UNL830      0.2090
   4981 O          21.2944   30.0180   -0.6090 O.3   831  UNL831     -0.3982
   4982 C          19.8786   30.0180   -0.6090 C.3   831  UNL831      0.0330
   4983 H          19.5133   29.2490    0.0762 H     831  UNL831      0.0521
   4984 H          19.5134   29.8233   -1.6203 H     831  UNL831      0.0521
   4985 H          19.5233   30.9966   -0.2778 H     831  UNL831      0.0521
   4986 H          21.5801   29.1376   -0.9070 H     831  UNL831      0.2090
   4987 O          21.2944   30.0180    2.3134 O.3   832  UNL832     -0.3982
   4988 C          19.8786   30.0180    2.3134 C.3   832  UNL832      0.0330
   4989 H          19.5133   29.2490    2.9986 H     832  UNL832      0.0521
   4990 H          19.5134   29.8233    1.3021 H     832  UNL832      0.0521
   4991 H          19.5233   30.9966    2.6446 H     832  UNL832      0.0521
   4992 H          21.5801   29.1376    2.0154 H     832  UNL832      0.2090
   4993 O          21.2944   30.0088    5.1167 O.3   833  UNL833     -0.3982
   4994 C          19.8786   30.0088    5.1167 C.3   833  UNL833      0.0330
   4995 H          19.5133   29.9709    6.1460 H     833  UNL833      0.0521
   4996 H          19.5134   29.1443    4.5571 H     833  UNL833      0.0521
   4997 H          19.5233   30.9253    4.6398 H     833  UNL833      0.0521
   4998 H          21.5801   29.1843    5.5457 H     833  UNL833      0.2090
   4999 O          23.2944   30.0088    8.0391 O.3   834  UNL834     -0.3982
   5000 C          21.8786   30.0088    8.0391 C.3   834  UNL834      0.0330
   5001 H          21.5133   29.9709    9.0683 H     834  UNL834      0.0521
   5002 H          21.5134   29.1443    7.4794 H     834  UNL834      0.0521
   5003 H          21.5233   30.9253    7.5622 H     834  UNL834      0.0521
   5004 H          23.5801   29.1843    8.4681 H     834  UNL834      0.2090
   5005 O          21.2944   30.0180   11.0806 O.3   835  UNL835     -0.3982
   5006 C          19.8786   30.0180   11.0806 C.3   835  UNL835      0.0330
   5007 H          19.5133   29.2490   11.7658 H     835  UNL835      0.0521
   5008 H          19.5134   29.8233   10.0693 H     835  UNL835      0.0521
   5009 H          19.5233   30.9966   11.4118 H     835  UNL835      0.0521
   5010 H          21.5801   29.1376   10.7826 H     835  UNL835      0.2090
   5011 O          21.2944   30.0180   14.0029 O.3   836  UNL836     -0.3982
   5012 C          19.8786   30.0180   14.0029 C.3   836  UNL836      0.0330
   5013 H          19.5133   29.2490   14.6881 H     836  UNL836      0.0521
   5014 H          19.5134   29.8233   12.9916 H     836  UNL836      0.0521
   5015 H          19.5233   30.9966   14.3341 H     836  UNL836      0.0521
   5016 H          21.5801   29.1376   13.7049 H     836  UNL836      0.2090
   5017 O          21.2944   30.0180   16.9253 O.3   837  UNL837     -0.3982
   5018 C          19.8786   30.0180   16.9253 C.3   837  UNL837      0.0330
   5019 H          19.5133   29.2490   17.6105 H     837  UNL837      0.0521
   5020 H          19.5134   29.8233   15.9140 H     837  UNL837      0.0521
   5021 H          19.5233   30.9966   17.2565 H     837  UNL837      0.0521
   5022 H          21.5801   29.1376   16.6273 H     837  UNL837      0.2090
   5023 O          21.2944   30.0180   19.8477 O.3   838  UNL838     -0.3982
   5024 C          19.8786   30.0180   19.8477 C.3   838  UNL838      0.0330
   5025 H          19.5133   29.2490   20.5329 H     838  UNL838      0.0521
   5026 H          19.5134   29.8233   18.8364 H     838  UNL838      0.0521
   5027 H          19.5233   30.9966   20.1789 H     838  UNL838      0.0521
   5028 H          21.5801   29.1376   19.5497 H     838  UNL838      0.2090
   5029 O          21.2944   30.0180   22.7701 O.3   839  UNL839     -0.3982
   5030 C          19.8786   30.0180   22.7701 C.3   839  UNL839      0.0330
   5031 H          19.5133   29.2490   23.4552 H     839  UNL839      0.0521
   5032 H          19.5134   29.8233   21.7588 H     839  UNL839      0.0521
   5033 H          19.5233   30.9966   23.1012 H     839  UNL839      0.0521
   5034 H          21.5801   29.1376   22.4720 H     839  UNL839      0.2090
   5035 O          21.2944   30.0180   25.6924 O.3   840  UNL840     -0.3982
   5036 C          19.8786   30.0180   25.6924 C.3   840  UNL840      0.0330
   5037 H          19.5133   29.2490   26.3776 H     840  UNL840      0.0521
   5038 H          19.5134   29.8233   24.6811 H     840  UNL840      0.0521
   5039 H          19.5233   30.9966   26.0236 H     840  UNL840      0.0521
   5040 H          21.5801   29.1376   25.3944 H     840  UNL840      0.2090
   5041 O          23.2944   29.8716   28.7183 O.3   841  UNL841     -0.3982
   5042 C          21.8786   29.8716   28.7183 C.3   841  UNL841      0.0330
   5043 H          21.5133   28.9832   28.1971 H     841  UNL841      0.0521
   5044 H          21.5134   30.7741   28.2221 H     841  UNL841      0.0521
   5045 H          21.5233   29.8573   29.7513 H     841  UNL841      0.0521
   5046 H          23.5801   29.8845   27.7889 H     841  UNL841      0.2090
   5047 O          24.7712   -0.4245   14.0029 O.3   842  UNL842     -0.3982
   5048 C          23.3554   -0.4245   14.0029 C.3   842  UNL842      0.0330
   5049 H          22.9901   -1.1935   14.6881 H     842  UNL842      0.0521
   5050 H          22.9902   -0.6192   12.9916 H     842  UNL842      0.0521
   5051 H          23.0001    0.5541   14.3341 H     842  UNL842      0.0521
   5052 H          25.0569   -1.3049   13.7049 H     842  UNL842      0.2090
   5053 O          24.7712    2.6197   -0.6090 O.3   843  UNL843     -0.3982
   5054 C          23.3554    2.6197   -0.6090 C.3   843  UNL843      0.0330
   5055 H          22.9901    1.8507    0.0762 H     843  UNL843      0.0521
   5056 H          22.9902    2.4250   -1.6203 H     843  UNL843      0.0521
   5057 H          23.0001    3.5983   -0.2778 H     843  UNL843      0.0521
   5058 H          25.0569    1.7393   -0.9070 H     843  UNL843      0.2090
   5059 O          24.7712    2.6197    2.3134 O.3   844  UNL844     -0.3982
   5060 C          23.3554    2.6197    2.3134 C.3   844  UNL844      0.0330
   5061 H          22.9901    1.8507    2.9986 H     844  UNL844      0.0521
   5062 H          22.9902    2.4250    1.3021 H     844  UNL844      0.0521
   5063 H          23.0001    3.5983    2.6446 H     844  UNL844      0.0521
   5064 H          25.0569    1.7393    2.0154 H     844  UNL844      0.2090
   5065 O          24.7712    2.6197    5.2358 O.3   845  UNL845     -0.3982
   5066 C          23.3554    2.6197    5.2358 C.3   845  UNL845      0.0330
   5067 H          22.9901    1.8507    5.9210 H     845  UNL845      0.0521
   5068 H          22.9902    2.4250    4.2245 H     845  UNL845      0.0521
   5069 H          23.0001    3.5983    5.5670 H     845  UNL845      0.0521
   5070 H          25.0569    1.7393    4.9378 H     845  UNL845      0.2090
   5071 O          24.7712    2.6197    8.1582 O.3   846  UNL846     -0.3982
   5072 C          23.3554    2.6197    8.1582 C.3   846  UNL846      0.0330
   5073 H          22.9901    1.8507    8.8434 H     846  UNL846      0.0521
   5074 H          22.9902    2.4250    7.1469 H     846  UNL846      0.0521
   5075 H          23.0001    3.5983    8.4894 H     846  UNL846      0.0521
   5076 H          25.0569    1.7393    7.8602 H     846  UNL846      0.2090
   5077 O          24.7712    2.6197   14.0029 O.3   847  UNL847     -0.3982
   5078 C          23.3554    2.6197   14.0029 C.3   847  UNL847      0.0330
   5079 H          22.9901    1.8507   14.6881 H     847  UNL847      0.0521
   5080 H          22.9902    2.4250   12.9916 H     847  UNL847      0.0521
   5081 H          23.0001    3.5983   14.3341 H     847  UNL847      0.0521
   5082 H          25.0569    1.7393   13.7049 H     847  UNL847      0.2090
   5083 O          24.7712    2.6197   16.9253 O.3   848  UNL848     -0.3982
   5084 C          23.3554    2.6197   16.9253 C.3   848  UNL848      0.0330
   5085 H          22.9901    1.8507   17.6105 H     848  UNL848      0.0521
   5086 H          22.9902    2.4250   15.9140 H     848  UNL848      0.0521
   5087 H          23.0001    3.5983   17.2565 H     848  UNL848      0.0521
   5088 H          25.0569    1.7393   16.6273 H     848  UNL848      0.2090
   5089 O          24.7712    2.6197   19.8477 O.3   849  UNL849     -0.3982
   5090 C          23.3554    2.6197   19.8477 C.3   849  UNL849      0.0330
   5091 H          22.9901    1.8507   20.5329 H     849  UNL849      0.0521
   5092 H          22.9902    2.4250   18.8364 H     849  UNL849      0.0521
   5093 H          23.0001    3.5983   20.1789 H     849  UNL849      0.0521
   5094 H          25.0569    1.7393   19.5497 H     849  UNL849      0.2090
   5095 O          24.7712    2.6197   22.7701 O.3   850  UNL850     -0.3982
   5096 C          23.3554    2.6197   22.7701 C.3   850  UNL850      0.0330
   5097 H          22.9901    1.8507   23.4552 H     850  UNL850      0.0521
   5098 H          22.9902    2.4250   21.7588 H     850  UNL850      0.0521
   5099 H          23.0001    3.5983   23.1012 H     850  UNL850      0.0521
   5100 H          25.0569    1.7393   22.4720 H     850  UNL850      0.2090
   5101 O          24.7712    2.6197   25.6924 O.3   851  UNL851     -0.3982
   5102 C          23.3554    2.6197   25.6924 C.3   851  UNL851      0.0330
   5103 H          22.9901    1.8507   26.3776 H     851  UNL851      0.0521
   5104 H          22.9902    2.4250   24.6811 H     851  UNL851      0.0521
   5105 H          23.0001    3.5983   26.0236 H     851  UNL851      0.0521
   5106 H          25.0569    1.7393   25.3944 H     851  UNL851      0.2090
   5107 O          24.7712    2.6197   28.6148 O.3   852  UNL852     -0.3982
   5108 C          23.3554    2.6197   28.6148 C.3   852  UNL852      0.0330
   5109 H          22.9901    1.8507   29.3000 H     852  UNL852      0.0521
   5110 H          22.9902    2.4250   27.6035 H     852  UNL852      0.0521
   5111 H          23.0001    3.5983   28.9460 H     852  UNL852      0.0521
   5112 H          25.0569    1.7393   28.3168 H     852  UNL852      0.2090
   5113 O          24.7712    5.6640   -0.6090 O.3   853  UNL853     -0.3982
   5114 C          23.3554    5.6640   -0.6090 C.3   853  UNL853      0.0330
   5115 H          22.9901    4.8950    0.0762 H     853  UNL853      0.0521
   5116 H          22.9902    5.4693   -1.6203 H     853  UNL853      0.0521
   5117 H          23.0001    6.6426   -0.2778 H     853  UNL853      0.0521
   5118 H          25.0569    4.7836   -0.9070 H     853  UNL853      0.2090
   5119 O          24.7712    5.6640    5.2358 O.3   854  UNL854     -0.3982
   5120 C          23.3554    5.6640    5.2358 C.3   854  UNL854      0.0330
   5121 H          22.9901    4.8950    5.9210 H     854  UNL854      0.0521
   5122 H          22.9902    5.4693    4.2245 H     854  UNL854      0.0521
   5123 H          23.0001    6.6426    5.5670 H     854  UNL854      0.0521
   5124 H          25.0569    4.7836    4.9378 H     854  UNL854      0.2090
   5125 O          24.7712    5.6640   11.0806 O.3   855  UNL855     -0.3982
   5126 C          23.3554    5.6640   11.0806 C.3   855  UNL855      0.0330
   5127 H          22.9901    4.8950   11.7658 H     855  UNL855      0.0521
   5128 H          22.9902    5.4693   10.0693 H     855  UNL855      0.0521
   5129 H          23.0001    6.6426   11.4118 H     855  UNL855      0.0521
   5130 H          25.0569    4.7836   10.7826 H     855  UNL855      0.2090
   5131 O          24.7712    8.7082   -0.6090 O.3   856  UNL856     -0.3982
   5132 C          23.3554    8.7082   -0.6090 C.3   856  UNL856      0.0330
   5133 H          22.9901    7.9392    0.0762 H     856  UNL856      0.0521
   5134 H          22.9902    8.5135   -1.6203 H     856  UNL856      0.0521
   5135 H          23.0001    9.6868   -0.2778 H     856  UNL856      0.0521
   5136 H          25.0569    7.8278   -0.9070 H     856  UNL856      0.2090
   5137 O          24.7712    8.7082    2.3134 O.3   857  UNL857     -0.3982
   5138 C          23.3554    8.7082    2.3134 C.3   857  UNL857      0.0330
   5139 H          22.9901    7.9392    2.9986 H     857  UNL857      0.0521
   5140 H          22.9902    8.5135    1.3021 H     857  UNL857      0.0521
   5141 H          23.0001    9.6868    2.6446 H     857  UNL857      0.0521
   5142 H          25.0569    7.8278    2.0154 H     857  UNL857      0.2090
   5143 O          24.7712    8.7082    5.2358 O.3   858  UNL858     -0.3982
   5144 C          23.3554    8.7082    5.2358 C.3   858  UNL858      0.0330
   5145 H          22.9901    7.9392    5.9210 H     858  UNL858      0.0521
   5146 H          22.9902    8.5135    4.2245 H     858  UNL858      0.0521
   5147 H          23.0001    9.6868    5.5670 H     858  UNL858      0.0521
   5148 H          25.0569    7.8278    4.9378 H     858  UNL858      0.2090
   5149 O          24.7712    8.7082    8.1582 O.3   859  UNL859     -0.3982
   5150 C          23.3554    8.7082    8.1582 C.3   859  UNL859      0.0330
   5151 H          22.9901    7.9392    8.8434 H     859  UNL859      0.0521
   5152 H          22.9902    8.5135    7.1469 H     859  UNL859      0.0521
   5153 H          23.0001    9.6868    8.4894 H     859  UNL859      0.0521
   5154 H          25.0569    7.8278    7.8602 H     859  UNL859      0.2090
   5155 O          24.7712    8.7082   11.0806 O.3   860  UNL860     -0.3982
   5156 C          23.3554    8.7082   11.0806 C.3   860  UNL860      0.0330
   5157 H          22.9901    7.9392   11.7658 H     860  UNL860      0.0521
   5158 H          22.9902    8.5135   10.0693 H     860  UNL860      0.0521
   5159 H          23.0001    9.6868   11.4118 H     860  UNL860      0.0521
   5160 H          25.0569    7.8278   10.7826 H     860  UNL860      0.2090
   5161 O          24.7712    8.7082   14.0029 O.3   861  UNL861     -0.3982
   5162 C          23.3554    8.7082   14.0029 C.3   861  UNL861      0.0330
   5163 H          22.9901    7.9392   14.6881 H     861  UNL861      0.0521
   5164 H          22.9902    8.5135   12.9916 H     861  UNL861      0.0521
   5165 H          23.0001    9.6868   14.3341 H     861  UNL861      0.0521
   5166 H          25.0569    7.8278   13.7049 H     861  UNL861      0.2090
   5167 O          24.7712    8.7082   16.9253 O.3   862  UNL862     -0.3982
   5168 C          23.3554    8.7082   16.9253 C.3   862  UNL862      0.0330
   5169 H          22.9901    7.9392   17.6105 H     862  UNL862      0.0521
   5170 H          22.9902    8.5135   15.9140 H     862  UNL862      0.0521
   5171 H          23.0001    9.6868   17.2565 H     862  UNL862      0.0521
   5172 H          25.0569    7.8278   16.6273 H     862  UNL862      0.2090
   5173 O          24.7712    8.7082   19.8477 O.3   863  UNL863     -0.3982
   5174 C          23.3554    8.7082   19.8477 C.3   863  UNL863      0.0330
   5175 H          22.9901    7.9392   20.5329 H     863  UNL863      0.0521
   5176 H          22.9902    8.5135   18.8364 H     863  UNL863      0.0521
   5177 H          23.0001    9.6868   20.1789 H     863  UNL863      0.0521
   5178 H          25.0569    7.8278   19.5497 H     863  UNL863      0.2090
   5179 O          24.7712    8.7082   22.7701 O.3   864  UNL864     -0.3982
   5180 C          23.3554    8.7082   22.7701 C.3   864  UNL864      0.0330
   5181 H          22.9901    7.9392   23.4552 H     864  UNL864      0.0521
   5182 H          22.9902    8.5135   21.7588 H     864  UNL864      0.0521
   5183 H          23.0001    9.6868   23.1012 H     864  UNL864      0.0521
   5184 H          25.0569    7.8278   22.4720 H     864  UNL864      0.2090
   5185 O          24.7712    8.7082   25.6924 O.3   865  UNL865     -0.3982
   5186 C          23.3554    8.7082   25.6924 C.3   865  UNL865      0.0330
   5187 H          22.9901    7.9392   26.3776 H     865  UNL865      0.0521
   5188 H          22.9902    8.5135   24.6811 H     865  UNL865      0.0521
   5189 H          23.0001    9.6868   26.0236 H     865  UNL865      0.0521
   5190 H          25.0569    7.8278   25.3944 H     865  UNL865      0.2090
   5191 O          24.7712    8.7082   28.6148 O.3   866  UNL866     -0.3982
   5192 C          23.3554    8.7082   28.6148 C.3   866  UNL866      0.0330
   5193 H          22.9901    7.9392   29.3000 H     866  UNL866      0.0521
   5194 H          22.9902    8.5135   27.6035 H     866  UNL866      0.0521
   5195 H          23.0001    9.6868   28.9460 H     866  UNL866      0.0521
   5196 H          25.0569    7.8278   28.3168 H     866  UNL866      0.2090
   5197 O          24.7712   11.7525   -0.6090 O.3   867  UNL867     -0.3982
   5198 C          23.3554   11.7525   -0.6090 C.3   867  UNL867      0.0330
   5199 H          22.9901   10.9835    0.0762 H     867  UNL867      0.0521
   5200 H          22.9902   11.5578   -1.6203 H     867  UNL867      0.0521
   5201 H          23.0001   12.7311   -0.2778 H     867  UNL867      0.0521
   5202 H          25.0569   10.8721   -0.9070 H     867  UNL867      0.2090
   5203 O          24.7712   11.7525    2.3134 O.3   868  UNL868     -0.3982
   5204 C          23.3554   11.7525    2.3134 C.3   868  UNL868      0.0330
   5205 H          22.9901   10.9835    2.9986 H     868  UNL868      0.0521
   5206 H          22.9902   11.5578    1.3021 H     868  UNL868      0.0521
   5207 H          23.0001   12.7311    2.6446 H     868  UNL868      0.0521
   5208 H          25.0569   10.8721    2.0154 H     868  UNL868      0.2090
   5209 O          24.7712   11.7525    5.2358 O.3   869  UNL869     -0.3982
   5210 C          23.3554   11.7525    5.2358 C.3   869  UNL869      0.0330
   5211 H          22.9901   10.9835    5.9210 H     869  UNL869      0.0521
   5212 H          22.9902   11.5578    4.2245 H     869  UNL869      0.0521
   5213 H          23.0001   12.7311    5.5670 H     869  UNL869      0.0521
   5214 H          25.0569   10.8721    4.9378 H     869  UNL869      0.2090
   5215 O          24.7712   11.7525    8.1582 O.3   870  UNL870     -0.3982
   5216 C          23.3554   11.7525    8.1582 C.3   870  UNL870      0.0330
   5217 H          22.9901   10.9835    8.8434 H     870  UNL870      0.0521
   5218 H          22.9902   11.5578    7.1469 H     870  UNL870      0.0521
   5219 H          23.0001   12.7311    8.4894 H     870  UNL870      0.0521
   5220 H          25.0569   10.8721    7.8602 H     870  UNL870      0.2090
   5221 O          24.7712   11.7525   11.0806 O.3   871  UNL871     -0.3982
   5222 C          23.3554   11.7525   11.0806 C.3   871  UNL871      0.0330
   5223 H          22.9901   10.9835   11.7658 H     871  UNL871      0.0521
   5224 H          22.9902   11.5578   10.0693 H     871  UNL871      0.0521
   5225 H          23.0001   12.7311   11.4118 H     871  UNL871      0.0521
   5226 H          25.0569   10.8721   10.7826 H     871  UNL871      0.2090
   5227 O          24.7712   11.7525   14.0029 O.3   872  UNL872     -0.3982
   5228 C          23.3554   11.7525   14.0029 C.3   872  UNL872      0.0330
   5229 H          22.9901   10.9835   14.6881 H     872  UNL872      0.0521
   5230 H          22.9902   11.5578   12.9916 H     872  UNL872      0.0521
   5231 H          23.0001   12.7311   14.3341 H     872  UNL872      0.0521
   5232 H          25.0569   10.8721   13.7049 H     872  UNL872      0.2090
   5233 O          24.7712   14.7967    3.2358 O.3   873  UNL873     -0.3982
   5234 C          23.3554   14.7967    3.2358 C.3   873  UNL873      0.0330
   5235 H          22.9901   14.0277    3.9210 H     873  UNL873      0.0521
   5236 H          22.9902   14.6020    2.2245 H     873  UNL873      0.0521
   5237 H          23.0001   15.7753    3.5670 H     873  UNL873      0.0521
   5238 H          25.0569   13.9163    2.9378 H     873  UNL873      0.2090
   5239 O          24.7712   14.7967    6.1582 O.3   874  UNL874     -0.3982
   5240 C          23.3554   14.7967    6.1582 C.3   874  UNL874      0.0330
   5241 H          22.9901   14.0277    6.8434 H     874  UNL874      0.0521
   5242 H          22.9902   14.6020    5.1469 H     874  UNL874      0.0521
   5243 H          23.0001   15.7753    6.4894 H     874  UNL874      0.0521
   5244 H          25.0569   13.9163    5.8602 H     874  UNL874      0.2090
   5245 O          24.7712   14.7967    9.0806 O.3   875  UNL875     -0.3982
   5246 C          23.3554   14.7967    9.0806 C.3   875  UNL875      0.0330
   5247 H          22.9901   14.0277    9.7658 H     875  UNL875      0.0521
   5248 H          22.9902   14.6020    8.0693 H     875  UNL875      0.0521
   5249 H          23.0001   15.7753    9.4118 H     875  UNL875      0.0521
   5250 H          25.0569   13.9163    8.7826 H     875  UNL875      0.2090
   5251 O          24.7712   14.7967   12.0029 O.3   876  UNL876     -0.3982
   5252 C          23.3554   14.7967   12.0029 C.3   876  UNL876      0.0330
   5253 H          22.9901   14.0277   12.6881 H     876  UNL876      0.0521
   5254 H          22.9902   14.6020   10.9916 H     876  UNL876      0.0521
   5255 H          23.0001   15.7753   12.3341 H     876  UNL876      0.0521
   5256 H          25.0569   13.9163   11.7049 H     876  UNL876      0.2090
   5257 O          24.7712   14.7967   16.9253 O.3   877  UNL877     -0.3982
   5258 C          23.3554   14.7967   16.9253 C.3   877  UNL877      0.0330
   5259 H          22.9901   14.0277   17.6105 H     877  UNL877      0.0521
   5260 H          22.9902   14.6020   15.9140 H     877  UNL877      0.0521
   5261 H          23.0001   15.7753   17.2565 H     877  UNL877      0.0521
   5262 H          25.0569   13.9163   16.6273 H     877  UNL877      0.2090
   5263 O          24.7712   14.7967   19.8477 O.3   878  UNL878     -0.3982
   5264 C          23.3554   14.7967   19.8477 C.3   878  UNL878      0.0330
   5265 H          22.9901   14.0277   20.5329 H     878  UNL878      0.0521
   5266 H          22.9902   14.6020   18.8364 H     878  UNL878      0.0521
   5267 H          23.0001   15.7753   20.1789 H     878  UNL878      0.0521
   5268 H          25.0569   13.9163   19.5497 H     878  UNL878      0.2090
   5269 O          24.7712   14.7967   22.7701 O.3   879  UNL879     -0.3982
   5270 C          23.3554   14.7967   22.7701 C.3   879  UNL879      0.0330
   5271 H          22.9901   14.0277   23.4552 H     879  UNL879      0.0521
   5272 H          22.9902   14.6020   21.7588 H     879  UNL879      0.0521
   5273 H          23.0001   15.7753   23.1012 H     879  UNL879      0.0521
   5274 H          25.0569   13.9163   22.4720 H     879  UNL879      0.2090
   5275 O          24.7712   14.7967   25.6924 O.3   880  UNL880     -0.3982
   5276 C          23.3554   14.7967   25.6924 C.3   880  UNL880      0.0330
   5277 H          22.9901   14.0277   26.3776 H     880  UNL880      0.0521
   5278 H          22.9902   14.6020   24.6811 H     880  UNL880      0.0521
   5279 H          23.0001   15.7753   26.0236 H     880  UNL880      0.0521
   5280 H          25.0569   13.9163   25.3944 H     880  UNL880      0.2090
   5281 O          24.7712   14.7967   28.6148 O.3   881  UNL881     -0.3982
   5282 C          23.3554   14.7967   28.6148 C.3   881  UNL881      0.0330
   5283 H          22.9901   14.0277   29.3000 H     881  UNL881      0.0521
   5284 H          22.9902   14.6020   27.6035 H     881  UNL881      0.0521
   5285 H          23.0001   15.7753   28.9460 H     881  UNL881      0.0521
   5286 H          25.0569   13.9163   28.3168 H     881  UNL881      0.2090
   5287 O          24.7712   17.6495   -0.8026 O.3   882  UNL882     -0.3982
   5288 C          23.3554   17.6495   -0.8026 C.3   882  UNL882      0.0330
   5289 H          22.9901   18.6587   -0.5965 H     882  UNL882      0.0521
   5290 H          22.9902   16.9558   -0.0413 H     882  UNL882      0.0521
   5291 H          23.0001   17.3292   -1.7848 H     882  UNL882      0.0521
   5292 H          25.0569   17.9376    0.0811 H     882  UNL882      0.2090
   5293 O          24.7712   17.8410    2.3134 O.3   883  UNL883     -0.3982
   5294 C          23.3554   17.8410    2.3134 C.3   883  UNL883      0.0330
   5295 H          22.9901   17.0720    2.9986 H     883  UNL883      0.0521
   5296 H          22.9902   17.6463    1.3021 H     883  UNL883      0.0521
   5297 H          23.0001   18.8196    2.6446 H     883  UNL883      0.0521
   5298 H          25.0569   16.9606    2.0154 H     883  UNL883      0.2090
   5299 O          24.7712   17.8410    5.2358 O.3   884  UNL884     -0.3982
   5300 C          23.3554   17.8410    5.2358 C.3   884  UNL884      0.0330
   5301 H          22.9901   17.0720    5.9210 H     884  UNL884      0.0521
   5302 H          22.9902   17.6463    4.2245 H     884  UNL884      0.0521
   5303 H          23.0001   18.8196    5.5670 H     884  UNL884      0.0521
   5304 H          25.0569   16.9606    4.9378 H     884  UNL884      0.2090
   5305 O          24.7712   17.8410    8.1582 O.3   885  UNL885     -0.3982
   5306 C          23.3554   17.8410    8.1582 C.3   885  UNL885      0.0330
   5307 H          22.9901   17.0720    8.8434 H     885  UNL885      0.0521
   5308 H          22.9902   17.6463    7.1469 H     885  UNL885      0.0521
   5309 H          23.0001   18.8196    8.4894 H     885  UNL885      0.0521
   5310 H          25.0569   16.9606    7.8602 H     885  UNL885      0.2090
   5311 O          24.7712   17.8410   19.8477 O.3   886  UNL886     -0.3982
   5312 C          23.3554   17.8410   19.8477 C.3   886  UNL886      0.0330
   5313 H          22.9901   17.0720   20.5329 H     886  UNL886      0.0521
   5314 H          22.9902   17.6463   18.8364 H     886  UNL886      0.0521
   5315 H          23.0001   18.8196   20.1789 H     886  UNL886      0.0521
   5316 H          25.0569   16.9606   19.5497 H     886  UNL886      0.2090
   5317 O          24.7712   17.8410   22.7701 O.3   887  UNL887     -0.3982
   5318 C          23.3554   17.8410   22.7701 C.3   887  UNL887      0.0330
   5319 H          22.9901   17.0720   23.4552 H     887  UNL887      0.0521
   5320 H          22.9902   17.6463   21.7588 H     887  UNL887      0.0521
   5321 H          23.0001   18.8196   23.1012 H     887  UNL887      0.0521
   5322 H          25.0569   16.9606   22.4720 H     887  UNL887      0.2090
   5323 O          24.7712   17.8410   25.6924 O.3   888  UNL888     -0.3982
   5324 C          23.3554   17.8410   25.6924 C.3   888  UNL888      0.0330
   5325 H          22.9901   17.0720   26.3776 H     888  UNL888      0.0521
   5326 H          22.9902   17.6463   24.6811 H     888  UNL888      0.0521
   5327 H          23.0001   18.8196   26.0236 H     888  UNL888      0.0521
   5328 H          25.0569   16.9606   25.3944 H     888  UNL888      0.2090
   5329 O          24.7712   17.8410   28.6148 O.3   889  UNL889     -0.3982
   5330 C          23.3554   17.8410   28.6148 C.3   889  UNL889      0.0330
   5331 H          22.9901   17.0720   29.3000 H     889  UNL889      0.0521
   5332 H          22.9902   17.6463   27.6035 H     889  UNL889      0.0521
   5333 H          23.0001   18.8196   28.9460 H     889  UNL889      0.0521
   5334 H          25.0569   16.9606   28.3168 H     889  UNL889      0.2090
   5335 O          24.7712   20.8852   -0.6090 O.3   890  UNL890     -0.3982
   5336 C          23.3554   20.8852   -0.6090 C.3   890  UNL890      0.0330
   5337 H          22.9901   20.1162    0.0762 H     890  UNL890      0.0521
   5338 H          22.9902   20.6905   -1.6203 H     890  UNL890      0.0521
   5339 H          23.0001   21.8638   -0.2778 H     890  UNL890      0.0521
   5340 H          25.0569   20.0048   -0.9070 H     890  UNL890      0.2090
   5341 O          24.7712   20.8852   16.9253 O.3   891  UNL891     -0.3982
   5342 C          23.3554   20.8852   16.9253 C.3   891  UNL891      0.0330
   5343 H          22.9901   20.1162   17.6105 H     891  UNL891      0.0521
   5344 H          22.9902   20.6905   15.9140 H     891  UNL891      0.0521
   5345 H          23.0001   21.8638   17.2565 H     891  UNL891      0.0521
   5346 H          25.0569   20.0048   16.6273 H     891  UNL891      0.2090
   5347 O          24.7712   20.8852   19.8477 O.3   892  UNL892     -0.3982
   5348 C          23.3554   20.8852   19.8477 C.3   892  UNL892      0.0330
   5349 H          22.9901   20.1162   20.5329 H     892  UNL892      0.0521
   5350 H          22.9902   20.6905   18.8364 H     892  UNL892      0.0521
   5351 H          23.0001   21.8638   20.1789 H     892  UNL892      0.0521
   5352 H          25.0569   20.0048   19.5497 H     892  UNL892      0.2090
   5353 O          23.9179   23.9295    6.2418 O.3   893  UNL893     -0.3982
   5354 C          23.5615   23.9295    4.8716 C.3   893  UNL893      0.0330
   5355 H          22.8064   23.1605    4.6905 H     893  UNL893      0.0521
   5356 H          24.4484   23.7348    4.2636 H     893  UNL893      0.0521
   5357 H          23.1516   24.9081    4.6111 H     893  UNL893      0.0521
   5358 H          24.2782   23.0491    6.4433 H     893  UNL893      0.2090
   5359 O          24.7712   23.9295    8.1582 O.3   894  UNL894     -0.3982
   5360 C          23.3554   23.9295    8.1582 C.3   894  UNL894      0.0330
   5361 H          22.9901   23.1605    8.8434 H     894  UNL894      0.0521
   5362 H          22.9902   23.7348    7.1469 H     894  UNL894      0.0521
   5363 H          23.0001   24.9081    8.4894 H     894  UNL894      0.0521
   5364 H          25.0569   23.0491    7.8602 H     894  UNL894      0.2090
   5365 O          24.7712   23.9295   19.8477 O.3   895  UNL895     -0.3982
   5366 C          23.3554   23.9295   19.8477 C.3   895  UNL895      0.0330
   5367 H          22.9901   23.1605   20.5329 H     895  UNL895      0.0521
   5368 H          22.9902   23.7348   18.8364 H     895  UNL895      0.0521
   5369 H          23.0001   24.9081   20.1789 H     895  UNL895      0.0521
   5370 H          25.0569   23.0491   19.5497 H     895  UNL895      0.2090
   5371 O          24.7712   23.9295   22.7701 O.3   896  UNL896     -0.3982
   5372 C          23.3554   23.9295   22.7701 C.3   896  UNL896      0.0330
   5373 H          22.9901   23.1605   23.4552 H     896  UNL896      0.0521
   5374 H          22.9902   23.7348   21.7588 H     896  UNL896      0.0521
   5375 H          23.0001   24.9081   23.1012 H     896  UNL896      0.0521
   5376 H          25.0569   23.0491   22.4720 H     896  UNL896      0.2090
   5377 O          24.7712   23.9295   25.6924 O.3   897  UNL897     -0.3982
   5378 C          23.3554   23.9295   25.6924 C.3   897  UNL897      0.0330
   5379 H          22.9901   23.1605   26.3776 H     897  UNL897      0.0521
   5380 H          22.9902   23.7348   24.6811 H     897  UNL897      0.0521
   5381 H          23.0001   24.9081   26.0236 H     897  UNL897      0.0521
   5382 H          25.0569   23.0491   25.3944 H     897  UNL897      0.2090
   5383 O          24.7712   23.9295   28.6148 O.3   898  UNL898     -0.3982
   5384 C          23.3554   23.9295   28.6148 C.3   898  UNL898      0.0330
   5385 H          22.9901   23.1605   29.3000 H     898  UNL898      0.0521
   5386 H          22.9902   23.7348   27.6035 H     898  UNL898      0.0521
   5387 H          23.0001   24.9081   28.9460 H     898  UNL898      0.0521
   5388 H          25.0569   23.0491   28.3168 H     898  UNL898      0.2090
   5389 O          24.7712   26.9737   -0.6090 O.3   899  UNL899     -0.3982
   5390 C          23.3554   26.9737   -0.6090 C.3   899  UNL899      0.0330
   5391 H          22.9901   26.2047    0.0762 H     899  UNL899      0.0521
   5392 H          22.9902   26.7790   -1.6203 H     899  UNL899      0.0521
   5393 H          23.0001   27.9523   -0.2778 H     899  UNL899      0.0521
   5394 H          25.0569   26.0933   -0.9070 H     899  UNL899      0.2090
   5395 O          24.7712   26.9737   19.8477 O.3   900  UNL900     -0.3982
   5396 C          23.3554   26.9737   19.8477 C.3   900  UNL900      0.0330
   5397 H          22.9901   26.2047   20.5329 H     900  UNL900      0.0521
   5398 H          22.9902   26.7790   18.8364 H     900  UNL900      0.0521
   5399 H          23.0001   27.9523   20.1789 H     900  UNL900      0.0521
   5400 H          25.0569   26.0933   19.5497 H     900  UNL900      0.2090
   5401 O          24.7712   30.0180   -0.6090 O.3   901  UNL901     -0.3982
   5402 C          23.3554   30.0180   -0.6090 C.3   901  UNL901      0.0330
   5403 H          22.9901   29.2490    0.0762 H     901  UNL901      0.0521
   5404 H          22.9902   29.8233   -1.6203 H     901  UNL901      0.0521
   5405 H          23.0001   30.9966   -0.2778 H     901  UNL901      0.0521
   5406 H          25.0569   29.1376   -0.9070 H     901  UNL901      0.2090
   5407 O          24.1047   28.8675    2.3134 O.3   902  UNL902     -0.3982
   5408 C          23.7484   30.2377    2.3134 C.3   902  UNL902      0.0330
   5409 H          22.9122   30.3977    2.9986 H     902  UNL902      0.0521
   5410 H          23.4680   30.5421    1.3021 H     902  UNL902      0.0521
   5411 H          24.6061   30.8279    2.6446 H     902  UNL902      0.0521
   5412 H          23.3246   28.3694    2.0154 H     902  UNL902      0.2090
   5413 O          24.7712   30.0088    5.1167 O.3   903  UNL903     -0.3982
   5414 C          23.3554   30.0088    5.1167 C.3   903  UNL903      0.0330
   5415 H          22.9901   29.9709    6.1460 H     903  UNL903      0.0521
   5416 H          22.9902   29.1443    4.5571 H     903  UNL903      0.0521
   5417 H          23.0001   30.9253    4.6398 H     903  UNL903      0.0521
   5418 H          25.0569   29.1843    5.5457 H     903  UNL903      0.2090
   5419 O          24.7712   30.0180   11.0806 O.3   904  UNL904     -0.3982
   5420 C          23.3554   30.0180   11.0806 C.3   904  UNL904      0.0330
   5421 H          22.9901   29.2490   11.7658 H     904  UNL904      0.0521
   5422 H          22.9902   29.8233   10.0693 H     904  UNL904      0.0521
   5423 H          23.0001   30.9966   11.4118 H     904  UNL904      0.0521
   5424 H          25.0569   29.1376   10.7826 H     904  UNL904      0.2090
   5425 O          24.7712   30.0180   14.0029 O.3   905  UNL905     -0.3982
   5426 C          23.3554   30.0180   14.0029 C.3   905  UNL905      0.0330
   5427 H          22.9901   29.2490   14.6881 H     905  UNL905      0.0521
   5428 H          22.9902   29.8233   12.9916 H     905  UNL905      0.0521
   5429 H          23.0001   30.9966   14.3341 H     905  UNL905      0.0521
   5430 H          25.0569   29.1376   13.7049 H     905  UNL905      0.2090
   5431 O          24.7712   30.0180   16.9253 O.3   906  UNL906     -0.3982
   5432 C          23.3554   30.0180   16.9253 C.3   906  UNL906      0.0330
   5433 H          22.9901   29.2490   17.6105 H     906  UNL906      0.0521
   5434 H          22.9902   29.8233   15.9140 H     906  UNL906      0.0521
   5435 H          23.0001   30.9966   17.2565 H     906  UNL906      0.0521
   5436 H          25.0569   29.1376   16.6273 H     906  UNL906      0.2090
   5437 O          24.7712   30.0180   19.8477 O.3   907  UNL907     -0.3982
   5438 C          23.3554   30.0180   19.8477 C.3   907  UNL907      0.0330
   5439 H          22.9901   29.2490   20.5329 H     907  UNL907      0.0521
   5440 H          22.9902   29.8233   18.8364 H     907  UNL907      0.0521
   5441 H          23.0001   30.9966   20.1789 H     907  UNL907      0.0521
   5442 H          25.0569   29.1376   19.5497 H     907  UNL907      0.2090
   5443 O          24.7712   30.0180   22.7701 O.3   908  UNL908     -0.3982
   5444 C          23.3554   30.0180   22.7701 C.3   908  UNL908      0.0330
   5445 H          22.9901   29.2490   23.4552 H     908  UNL908      0.0521
   5446 H          22.9902   29.8233   21.7588 H     908  UNL908      0.0521
   5447 H          23.0001   30.9966   23.1012 H     908  UNL908      0.0521
   5448 H          25.0569   29.1376   22.4720 H     908  UNL908      0.2090
   5449 O          24.7712   30.0180   25.6924 O.3   909  UNL909     -0.3982
   5450 C          23.3554   30.0180   25.6924 C.3   909  UNL909      0.0330
   5451 H          22.9901   29.2490   26.3776 H     909  UNL909      0.0521
   5452 H          22.9902   29.8233   24.6811 H     909  UNL909      0.0521
   5453 H          23.0001   30.9966   26.0236 H     909  UNL909      0.0521
   5454 H          25.0569   29.1376   25.3944 H     909  UNL909      0.2090
@<TRIPOS>BOND
     1     1     2    1
     2     1     6    1
     3     2     3    1
     4     2     4    1
     5     2     5    1
     6     7     8    1
     7     7    12    1
     8     8     9    1
     9     8    10    1
    10     8    11    1
    11    13    14    1
    12    13    18    1
    13    14    15    1
    14    14    16    1
    15    14    17    1
    16    19    20    1
    17    19    24    1
    18    20    21    1
    19    20    22    1
    20    20    23    1
    21    25    26    1
    22    25    30    1
    23    26    27    1
    24    26    28    1
    25    26    29    1
    26    31    32    1
    27    31    36    1
    28    32    33    1
    29    32    34    1
    30    32    35    1
    31    37    38    1
    32    37    42    1
    33    38    39    1
    34    38    40    1
    35    38    41    1
    36    43    44    1
    37    43    48    1
    38    44    45    1
    39    44    46    1
    40    44    47    1
    41    49    50    1
    42    49    54    1
    43    50    51    1
    44    50    52    1
    45    50    53    1
    46    55    56    1
    47    55    60    1
    48    56    57    1
    49    56    58    1
    50    56    59    1
    51    61    62    1
    52    61    66    1
    53    62    63    1
    54    62    64    1
    55    62    65    1
    56    67    68    1
    57    67    72    1
    58    68    69    1
    59    68    70    1
    60    68    71    1
    61    73    74    1
    62    73    78    1
    63    74    75    1
    64    74    76    1
    65    74    77    1
    66    79    80    1
    67    79    84    1
    68    80    81    1
    69    80    82    1
    70    80    83    1
    71    85    86    1
    72    85    90    1
    73    86    87    1
    74    86    88    1
    75    86    89    1
    76    91    92    1
    77    91    96    1
    78    92    93    1
    79    92    94    1
    80    92    95    1
    81    97    98    1
    82    97   102    1
    83    98    99    1
    84    98   100    1
    85    98   101    1
    86   103   104    1
    87   103   108    1
    88   104   105    1
    89   104   106    1
    90   104   107    1
    91   109   110    1
    92   109   114    1
    93   110   111    1
    94   110   112    1
    95   110   113    1
    96   115   116    1
    97   115   120    1
    98   116   117    1
    99   116   118    1
   100   116   119    1
   101   121   122    1
   102   121   126    1
   103   122   123    1
   104   122   124    1
   105   122   125    1
   106   127   128    1
   107   127   132    1
   108   128   129    1
   109   128   130    1
   110   128   131    1
   111   133   134    1
   112   133   138    1
   113   134   135    1
   114   134   136    1
   115   134   137    1
   116   139   140    1
   117   139   144    1
   118   140   141    1
   119   140   142    1
   120   140   143    1
   121   145   146    1
   122   145   150    1
   123   146   147    1
   124   146   148    1
   125   146   149    1
   126   151   152    1
   127   151   156    1
   128   152   153    1
   129   152   154    1
   130   152   155    1
   131   157   158    1
   132   157   162    1
   133   158   159    1
   134   158   160    1
   135   158   161    1
   136   163   164    1
   137   163   168    1
   138   164   165    1
   139   164   166    1
   140   164   167    1
   141   169   170    1
   142   169   174    1
   143   170   171    1
   144   170   172    1
   145   170   173    1
   146   175   176    1
   147   175   180    1
   148   176   177    1
   149   176   178    1
   150   176   179    1
   151   181   182    1
   152   181   186    1
   153   182   183    1
   154   182   184    1
   155   182   185    1
   156   187   188    1
   157   187   192    1
   158   188   189    1
   159   188   190    1
   160   188   191    1
   161   193   194    1
   162   193   198    1
   163   194   195    1
   164   194   196    1
   165   194   197    1
   166   199   200    1
   167   199   204    1
   168   200   201    1
   169   200   202    1
   170   200   203    1
   171   205   206    1
   172   205   210    1
   173   206   207    1
   174   206   208    1
   175   206   209    1
   176   211   212    1
   177   211   216    1
   178   212   213    1
   179   212   214    1
   180   212   215    1
   181   217   218    1
   182   217   222    1
   183   218   219    1
   184   218   220    1
   185   218   221    1
   186   223   224    1
   187   223   228    1
   188   224   225    1
   189   224   226    1
   190   224   227    1
   191   229   230    1
   192   229   234    1
   193   230   231    1
   194   230   232    1
   195   230   233    1
   196   235   236    1
   197   235   240    1
   198   236   237    1
   199   236   238    1
   200   236   239    1
   201   241   242    1
   202   241   246    1
   203   242   243    1
   204   242   244    1
   205   242   245    1
   206   247   248    1
   207   247   252    1
   208   248   249    1
   209   248   250    1
   210   248   251    1
   211   253   254    1
   212   253   258    1
   213   254   255    1
   214   254   256    1
   215   254   257    1
   216   259   260    1
   217   259   264    1
   218   260   261    1
   219   260   262    1
   220   260   263    1
   221   265   266    1
   222   265   270    1
   223   266   267    1
   224   266   268    1
   225   266   269    1
   226   271   272    1
   227   271   276    1
   228   272   273    1
   229   272   274    1
   230   272   275    1
   231   277   278    1
   232   277   282    1
   233   278   279    1
   234   278   280    1
   235   278   281    1
   236   283   284    1
   237   283   288    1
   238   284   285    1
   239   284   286    1
   240   284   287    1
   241   289   290    1
   242   289   294    1
   243   290   291    1
   244   290   292    1
   245   290   293    1
   246   295   296    1
   247   295   300    1
   248   296   297    1
   249   296   298    1
   250   296   299    1
   251   301   302    1
   252   301   306    1
   253   302   303    1
   254   302   304    1
   255   302   305    1
   256   307   308    1
   257   307   312    1
   258   308   309    1
   259   308   310    1
   260   308   311    1
   261   313   314    1
   262   313   318    1
   263   314   315    1
   264   314   316    1
   265   314   317    1
   266   319   320    1
   267   319   324    1
   268   320   321    1
   269   320   322    1
   270   320   323    1
   271   325   326    1
   272   325   330    1
   273   326   327    1
   274   326   328    1
   275   326   329    1
   276   331   332    1
   277   331   336    1
   278   332   333    1
   279   332   334    1
   280   332   335    1
   281   337   338    1
   282   337   342    1
   283   338   339    1
   284   338   340    1
   285   338   341    1
   286   343   344    1
   287   343   348    1
   288   344   345    1
   289   344   346    1
   290   344   347    1
   291   349   350    1
   292   349   354    1
   293   350   351    1
   294   350   352    1
   295   350   353    1
   296   355   356    1
   297   355   360    1
   298   356   357    1
   299   356   358    1
   300   356   359    1
   301   361   362    1
   302   361   366    1
   303   362   363    1
   304   362   364    1
   305   362   365    1
   306   367   368    1
   307   367   372    1
   308   368   369    1
   309   368   370    1
   310   368   371    1
   311   373   374    1
   312   373   378    1
   313   374   375    1
   314   374   376    1
   315   374   377    1
   316   379   380    1
   317   379   384    1
   318   380   381    1
   319   380   382    1
   320   380   383    1
   321   385   386    1
   322   385   390    1
   323   386   387    1
   324   386   388    1
   325   386   389    1
   326   391   392    1
   327   391   396    1
   328   392   393    1
   329   392   394    1
   330   392   395    1
   331   397   398    1
   332   397   402    1
   333   398   399    1
   334   398   400    1
   335   398   401    1
   336   403   404    1
   337   403   408    1
   338   404   405    1
   339   404   406    1
   340   404   407    1
   341   409   410    1
   342   409   414    1
   343   410   411    1
   344   410   412    1
   345   410   413    1
   346   415   416    1
   347   415   420    1
   348   416   417    1
   349   416   418    1
   350   416   419    1
   351   421   422    1
   352   421   426    1
   353   422   423    1
   354   422   424    1
   355   422   425    1
   356   427   428    1
   357   427   432    1
   358   428   429    1
   359   428   430    1
   360   428   431    1
   361   433   434    1
   362   433   438    1
   363   434   435    1
   364   434   436    1
   365   434   437    1
   366   439   440    1
   367   439   444    1
   368   440   441    1
   369   440   442    1
   370   440   443    1
   371   445   446    1
   372   445   450    1
   373   446   447    1
   374   446   448    1
   375   446   449    1
   376   451   452    1
   377   451   456    1
   378   452   453    1
   379   452   454    1
   380   452   455    1
   381   457   458    1
   382   457   462    1
   383   458   459    1
   384   458   460    1
   385   458   461    1
   386   463   464    1
   387   463   468    1
   388   464   465    1
   389   464   466    1
   390   464   467    1
   391   469   470    1
   392   469   474    1
   393   470   471    1
   394   470   472    1
   395   470   473    1
   396   475   476    1
   397   475   480    1
   398   476   477    1
   399   476   478    1
   400   476   479    1
   401   481   482    1
   402   481   486    1
   403   482   483    1
   404   482   484    1
   405   482   485    1
   406   487   488    1
   407   487   492    1
   408   488   489    1
   409   488   490    1
   410   488   491    1
   411   493   494    1
   412   493   498    1
   413   494   495    1
   414   494   496    1
   415   494   497    1
   416   499   500    1
   417   499   504    1
   418   500   501    1
   419   500   502    1
   420   500   503    1
   421   505   506    1
   422   505   510    1
   423   506   507    1
   424   506   508    1
   425   506   509    1
   426   511   512    1
   427   511   516    1
   428   512   513    1
   429   512   514    1
   430   512   515    1
   431   517   518    1
   432   517   522    1
   433   518   519    1
   434   518   520    1
   435   518   521    1
   436   523   524    1
   437   523   528    1
   438   524   525    1
   439   524   526    1
   440   524   527    1
   441   529   530    1
   442   529   534    1
   443   530   531    1
   444   530   532    1
   445   530   533    1
   446   535   536    1
   447   535   540    1
   448   536   537    1
   449   536   538    1
   450   536   539    1
   451   541   542    1
   452   541   546    1
   453   542   543    1
   454   542   544    1
   455   542   545    1
   456   547   548    1
   457   547   552    1
   458   548   549    1
   459   548   550    1
   460   548   551    1
   461   553   554    1
   462   553   558    1
   463   554   555    1
   464   554   556    1
   465   554   557    1
   466   559   560    1
   467   559   564    1
   468   560   561    1
   469   560   562    1
   470   560   563    1
   471   565   566    1
   472   565   570    1
   473   566   567    1
   474   566   568    1
   475   566   569    1
   476   571   572    1
   477   571   576    1
   478   572   573    1
   479   572   574    1
   480   572   575    1
   481   577   578    1
   482   577   582    1
   483   578   579    1
   484   578   580    1
   485   578   581    1
   486   583   584    1
   487   583   588    1
   488   584   585    1
   489   584   586    1
   490   584   587    1
   491   589   590    1
   492   589   594    1
   493   590   591    1
   494   590   592    1
   495   590   593    1
   496   595   596    1
   497   595   600    1
   498   596   597    1
   499   596   598    1
   500   596   599    1
   501   601   602    1
   502   601   606    1
   503   602   603    1
   504   602   604    1
   505   602   605    1
   506   607   608    1
   507   607   612    1
   508   608   609    1
   509   608   610    1
   510   608   611    1
   511   613   614    1
   512   613   618    1
   513   614   615    1
   514   614   616    1
   515   614   617    1
   516   619   620    1
   517   619   624    1
   518   620   621    1
   519   620   622    1
   520   620   623    1
   521   625   626    1
   522   625   630    1
   523   626   627    1
   524   626   628    1
   525   626   629    1
   526   631   632    1
   527   631   636    1
   528   632   633    1
   529   632   634    1
   530   632   635    1
   531   637   638    1
   532   637   642    1
   533   638   639    1
   534   638   640    1
   535   638   641    1
   536   643   644    1
   537   643   648    1
   538   644   645    1
   539   644   646    1
   540   644   647    1
   541   649   650    1
   542   649   654    1
   543   650   651    1
   544   650   652    1
   545   650   653    1
   546   655   656    1
   547   655   660    1
   548   656   657    1
   549   656   658    1
   550   656   659    1
   551   661   662    1
   552   661   666    1
   553   662   663    1
   554   662   664    1
   555   662   665    1
   556   667   668    1
   557   667   672    1
   558   668   669    1
   559   668   670    1
   560   668   671    1
   561   673   674    1
   562   673   678    1
   563   674   675    1
   564   674   676    1
   565   674   677    1
   566   679   680    1
   567   679   684    1
   568   680   681    1
   569   680   682    1
   570   680   683    1
   571   685   686    1
   572   685   690    1
   573   686   687    1
   574   686   688    1
   575   686   689    1
   576   691   692    1
   577   691   696    1
   578   692   693    1
   579   692   694    1
   580   692   695    1
   581   697   698    1
   582   697   702    1
   583   698   699    1
   584   698   700    1
   585   698   701    1
   586   703   704    1
   587   703   708    1
   588   704   705    1
   589   704   706    1
   590   704   707    1
   591   709   710    1
   592   709   714    1
   593   710   711    1
   594   710   712    1
   595   710   713    1
   596   715   716    1
   597   715   720    1
   598   716   717    1
   599   716   718    1
   600   716   719    1
   601   721   722    1
   602   721   726    1
   603   722   723    1
   604   722   724    1
   605   722   725    1
   606   727   728    1
   607   727   732    1
   608   728   729    1
   609   728   730    1
   610   728   731    1
   611   733   734    1
   612   733   738    1
   613   734   735    1
   614   734   736    1
   615   734   737    1
   616   739   740    1
   617   739   744    1
   618   740   741    1
   619   740   742    1
   620   740   743    1
   621   745   746    1
   622   745   750    1
   623   746   747    1
   624   746   748    1
   625   746   749    1
   626   751   752    1
   627   751   756    1
   628   752   753    1
   629   752   754    1
   630   752   755    1
   631   757   758    1
   632   757   762    1
   633   758   759    1
   634   758   760    1
   635   758   761    1
   636   763   764    1
   637   763   768    1
   638   764   765    1
   639   764   766    1
   640   764   767    1
   641   769   770    1
   642   769   774    1
   643   770   771    1
   644   770   772    1
   645   770   773    1
   646   775   776    1
   647   775   780    1
   648   776   777    1
   649   776   778    1
   650   776   779    1
   651   781   782    1
   652   781   786    1
   653   782   783    1
   654   782   784    1
   655   782   785    1
   656   787   788    1
   657   787   792    1
   658   788   789    1
   659   788   790    1
   660   788   791    1
   661   793   794    1
   662   793   798    1
   663   794   795    1
   664   794   796    1
   665   794   797    1
   666   799   800    1
   667   799   804    1
   668   800   801    1
   669   800   802    1
   670   800   803    1
   671   805   806    1
   672   805   810    1
   673   806   807    1
   674   806   808    1
   675   806   809    1
   676   811   812    1
   677   811   816    1
   678   812   813    1
   679   812   814    1
   680   812   815    1
   681   817   818    1
   682   817   822    1
   683   818   819    1
   684   818   820    1
   685   818   821    1
   686   823   824    1
   687   823   828    1
   688   824   825    1
   689   824   826    1
   690   824   827    1
   691   829   830    1
   692   829   834    1
   693   830   831    1
   694   830   832    1
   695   830   833    1
   696   835   836    1
   697   835   840    1
   698   836   837    1
   699   836   838    1
   700   836   839    1
   701   841   842    1
   702   841   846    1
   703   842   843    1
   704   842   844    1
   705   842   845    1
   706   847   848    1
   707   847   852    1
   708   848   849    1
   709   848   850    1
   710   848   851    1
   711   853   854    1
   712   853   858    1
   713   854   855    1
   714   854   856    1
   715   854   857    1
   716   859   860    1
   717   859   864    1
   718   860   861    1
   719   860   862    1
   720   860   863    1
   721   865   866    1
   722   865   870    1
   723   866   867    1
   724   866   868    1
   725   866   869    1
   726   871   872    1
   727   871   876    1
   728   872   873    1
   729   872   874    1
   730   872   875    1
   731   877   878    1
   732   877   882    1
   733   878   879    1
   734   878   880    1
   735   878   881    1
   736   883   884    1
   737   883   888    1
   738   884   885    1
   739   884   886    1
   740   884   887    1
   741   889   890    1
   742   889   894    1
   743   890   891    1
   744   890   892    1
   745   890   893    1
   746   895   896    1
   747   895   900    1
   748   896   897    1
   749   896   898    1
   750   896   899    1
   751   901   902    1
   752   901   906    1
   753   902   903    1
   754   902   904    1
   755   902   905    1
   756   907   908    1
   757   907   912    1
   758   908   909    1
   759   908   910    1
   760   908   911    1
   761   913   914    1
   762   913   918    1
   763   914   915    1
   764   914   916    1
   765   914   917    1
   766   919   920    1
   767   919   924    1
   768   920   921    1
   769   920   922    1
   770   920   923    1
   771   925   926    1
   772   925   930    1
   773   926   927    1
   774   926   928    1
   775   926   929    1
   776   931   932    1
   777   931   936    1
   778   932   933    1
   779   932   934    1
   780   932   935    1
   781   937   938    1
   782   937   942    1
   783   938   939    1
   784   938   940    1
   785   938   941    1
   786   943   944    1
   787   943   948    1
   788   944   945    1
   789   944   946    1
   790   944   947    1
   791   949   950    1
   792   949   954    1
   793   950   951    1
   794   950   952    1
   795   950   953    1
   796   955   956    1
   797   955   960    1
   798   956   957    1
   799   956   958    1
   800   956   959    1
   801   961   962    1
   802   961   966    1
   803   962   963    1
   804   962   964    1
   805   962   965    1
   806   967   968    1
   807   967   972    1
   808   968   969    1
   809   968   970    1
   810   968   971    1
   811   973   974    1
   812   973   978    1
   813   974   975    1
   814   974   976    1
   815   974   977    1
   816   979   980    1
   817   979   984    1
   818   980   981    1
   819   980   982    1
   820   980   983    1
   821   985   986    1
   822   985   990    1
   823   986   987    1
   824   986   988    1
   825   986   989    1
   826   991   992    1
   827   991   996    1
   828   992   993    1
   829   992   994    1
   830   992   995    1
   831   997   998    1
   832   997  1002    1
   833   998   999    1
   834   998  1000    1
   835   998  1001    1
   836  1003  1004    1
   837  1003  1008    1
   838  1004  1005    1
   839  1004  1006    1
   840  1004  1007    1
   841  1009  1010    1
   842  1009  1014    1
   843  1010  1011    1
   844  1010  1012    1
   845  1010  1013    1
   846  1015  1016    1
   847  1015  1020    1
   848  1016  1017    1
   849  1016  1018    1
   850  1016  1019    1
   851  1021  1022    1
   852  1021  1026    1
   853  1022  1023    1
   854  1022  1024    1
   855  1022  1025    1
   856  1027  1028    1
   857  1027  1032    1
   858  1028  1029    1
   859  1028  1030    1
   860  1028  1031    1
   861  1033  1034    1
   862  1033  1038    1
   863  1034  1035    1
   864  1034  1036    1
   865  1034  1037    1
   866  1039  1040    1
   867  1039  1044    1
   868  1040  1041    1
   869  1040  1042    1
   870  1040  1043    1
   871  1045  1046    1
   872  1045  1050    1
   873  1046  1047    1
   874  1046  1048    1
   875  1046  1049    1
   876  1051  1052    1
   877  1051  1056    1
   878  1052  1053    1
   879  1052  1054    1
   880  1052  1055    1
   881  1057  1058    1
   882  1057  1062    1
   883  1058  1059    1
   884  1058  1060    1
   885  1058  1061    1
   886  1063  1064    1
   887  1063  1068    1
   888  1064  1065    1
   889  1064  1066    1
   890  1064  1067    1
   891  1069  1070    1
   892  1069  1074    1
   893  1070  1071    1
   894  1070  1072    1
   895  1070  1073    1
   896  1075  1076    1
   897  1075  1080    1
   898  1076  1077    1
   899  1076  1078    1
   900  1076  1079    1
   901  1081  1082    1
   902  1081  1086    1
   903  1082  1083    1
   904  1082  1084    1
   905  1082  1085    1
   906  1087  1088    1
   907  1087  1092    1
   908  1088  1089    1
   909  1088  1090    1
   910  1088  1091    1
   911  1093  1094    1
   912  1093  1098    1
   913  1094  1095    1
   914  1094  1096    1
   915  1094  1097    1
   916  1099  1100    1
   917  1099  1104    1
   918  1100  1101    1
   919  1100  1102    1
   920  1100  1103    1
   921  1105  1106    1
   922  1105  1110    1
   923  1106  1107    1
   924  1106  1108    1
   925  1106  1109    1
   926  1111  1112    1
   927  1111  1116    1
   928  1112  1113    1
   929  1112  1114    1
   930  1112  1115    1
   931  1117  1118    1
   932  1117  1122    1
   933  1118  1119    1
   934  1118  1120    1
   935  1118  1121    1
   936  1123  1124    1
   937  1123  1128    1
   938  1124  1125    1
   939  1124  1126    1
   940  1124  1127    1
   941  1129  1130    1
   942  1129  1134    1
   943  1130  1131    1
   944  1130  1132    1
   945  1130  1133    1
   946  1135  1136    1
   947  1135  1140    1
   948  1136  1137    1
   949  1136  1138    1
   950  1136  1139    1
   951  1141  1142    1
   952  1141  1146    1
   953  1142  1143    1
   954  1142  1144    1
   955  1142  1145    1
   956  1147  1148    1
   957  1147  1152    1
   958  1148  1149    1
   959  1148  1150    1
   960  1148  1151    1
   961  1153  1154    1
   962  1153  1158    1
   963  1154  1155    1
   964  1154  1156    1
   965  1154  1157    1
   966  1159  1160    1
   967  1159  1164    1
   968  1160  1161    1
   969  1160  1162    1
   970  1160  1163    1
   971  1165  1166    1
   972  1165  1170    1
   973  1166  1167    1
   974  1166  1168    1
   975  1166  1169    1
   976  1171  1172    1
   977  1171  1176    1
   978  1172  1173    1
   979  1172  1174    1
   980  1172  1175    1
   981  1177  1178    1
   982  1177  1182    1
   983  1178  1179    1
   984  1178  1180    1
   985  1178  1181    1
   986  1183  1184    1
   987  1183  1188    1
   988  1184  1185    1
   989  1184  1186    1
   990  1184  1187    1
   991  1189  1190    1
   992  1189  1194    1
   993  1190  1191    1
   994  1190  1192    1
   995  1190  1193    1
   996  1195  1196    1
   997  1195  1200    1
   998  1196  1197    1
   999  1196  1198    1
  1000  1196  1199    1
  1001  1201  1202    1
  1002  1201  1206    1
  1003  1202  1203    1
  1004  1202  1204    1
  1005  1202  1205    1
  1006  1207  1208    1
  1007  1207  1212    1
  1008  1208  1209    1
  1009  1208  1210    1
  1010  1208  1211    1
  1011  1213  1214    1
  1012  1213  1218    1
  1013  1214  1215    1
  1014  1214  1216    1
  1015  1214  1217    1
  1016  1219  1220    1
  1017  1219  1224    1
  1018  1220  1221    1
  1019  1220  1222    1
  1020  1220  1223    1
  1021  1225  1226    1
  1022  1225  1230    1
  1023  1226  1227    1
  1024  1226  1228    1
  1025  1226  1229    1
  1026  1231  1232    1
  1027  1231  1236    1
  1028  1232  1233    1
  1029  1232  1234    1
  1030  1232  1235    1
  1031  1237  1238    1
  1032  1237  1242    1
  1033  1238  1239    1
  1034  1238  1240    1
  1035  1238  1241    1
  1036  1243  1244    1
  1037  1243  1248    1
  1038  1244  1245    1
  1039  1244  1246    1
  1040  1244  1247    1
  1041  1249  1250    1
  1042  1249  1254    1
  1043  1250  1251    1
  1044  1250  1252    1
  1045  1250  1253    1
  1046  1255  1256    1
  1047  1255  1260    1
  1048  1256  1257    1
  1049  1256  1258    1
  1050  1256  1259    1
  1051  1261  1262    1
  1052  1261  1266    1
  1053  1262  1263    1
  1054  1262  1264    1
  1055  1262  1265    1
  1056  1267  1268    1
  1057  1267  1272    1
  1058  1268  1269    1
  1059  1268  1270    1
  1060  1268  1271    1
  1061  1273  1274    1
  1062  1273  1278    1
  1063  1274  1275    1
  1064  1274  1276    1
  1065  1274  1277    1
  1066  1279  1280    1
  1067  1279  1284    1
  1068  1280  1281    1
  1069  1280  1282    1
  1070  1280  1283    1
  1071  1285  1286    1
  1072  1285  1290    1
  1073  1286  1287    1
  1074  1286  1288    1
  1075  1286  1289    1
  1076  1291  1292    1
  1077  1291  1296    1
  1078  1292  1293    1
  1079  1292  1294    1
  1080  1292  1295    1
  1081  1297  1298    1
  1082  1297  1302    1
  1083  1298  1299    1
  1084  1298  1300    1
  1085  1298  1301    1
  1086  1303  1304    1
  1087  1303  1308    1
  1088  1304  1305    1
  1089  1304  1306    1
  1090  1304  1307    1
  1091  1309  1310    1
  1092  1309  1314    1
  1093  1310  1311    1
  1094  1310  1312    1
  1095  1310  1313    1
  1096  1315  1316    1
  1097  1315  1320    1
  1098  1316  1317    1
  1099  1316  1318    1
  1100  1316  1319    1
  1101  1321  1322    1
  1102  1321  1326    1
  1103  1322  1323    1
  1104  1322  1324    1
  1105  1322  1325    1
  1106  1327  1328    1
  1107  1327  1332    1
  1108  1328  1329    1
  1109  1328  1330    1
  1110  1328  1331    1
  1111  1333  1334    1
  1112  1333  1338    1
  1113  1334  1335    1
  1114  1334  1336    1
  1115  1334  1337    1
  1116  1339  1340    1
  1117  1339  1344    1
  1118  1340  1341    1
  1119  1340  1342    1
  1120  1340  1343    1
  1121  1345  1346    1
  1122  1345  1350    1
  1123  1346  1347    1
  1124  1346  1348    1
  1125  1346  1349    1
  1126  1351  1352    1
  1127  1351  1356    1
  1128  1352  1353    1
  1129  1352  1354    1
  1130  1352  1355    1
  1131  1357  1358    1
  1132  1357  1362    1
  1133  1358  1359    1
  1134  1358  1360    1
  1135  1358  1361    1
  1136  1363  1364    1
  1137  1363  1368    1
  1138  1364  1365    1
  1139  1364  1366    1
  1140  1364  1367    1
  1141  1369  1370    1
  1142  1369  1374    1
  1143  1370  1371    1
  1144  1370  1372    1
  1145  1370  1373    1
  1146  1375  1376    1
  1147  1375  1380    1
  1148  1376  1377    1
  1149  1376  1378    1
  1150  1376  1379    1
  1151  1381  1382    1
  1152  1381  1386    1
  1153  1382  1383    1
  1154  1382  1384    1
  1155  1382  1385    1
  1156  1387  1388    1
  1157  1387  1392    1
  1158  1388  1389    1
  1159  1388  1390    1
  1160  1388  1391    1
  1161  1393  1394    1
  1162  1393  1398    1
  1163  1394  1395    1
  1164  1394  1396    1
  1165  1394  1397    1
  1166  1399  1400    1
  1167  1399  1404    1
  1168  1400  1401    1
  1169  1400  1402    1
  1170  1400  1403    1
  1171  1405  1406    1
  1172  1405  1410    1
  1173  1406  1407    1
  1174  1406  1408    1
  1175  1406  1409    1
  1176  1411  1412    1
  1177  1411  1416    1
  1178  1412  1413    1
  1179  1412  1414    1
  1180  1412  1415    1
  1181  1417  1418    1
  1182  1417  1422    1
  1183  1418  1419    1
  1184  1418  1420    1
  1185  1418  1421    1
  1186  1423  1424    1
  1187  1423  1428    1
  1188  1424  1425    1
  1189  1424  1426    1
  1190  1424  1427    1
  1191  1429  1430    1
  1192  1429  1434    1
  1193  1430  1431    1
  1194  1430  1432    1
  1195  1430  1433    1
  1196  1435  1436    1
  1197  1435  1440    1
  1198  1436  1437    1
  1199  1436  1438    1
  1200  1436  1439    1
  1201  1441  1442    1
  1202  1441  1446    1
  1203  1442  1443    1
  1204  1442  1444    1
  1205  1442  1445    1
  1206  1447  1448    1
  1207  1447  1452    1
  1208  1448  1449    1
  1209  1448  1450    1
  1210  1448  1451    1
  1211  1453  1454    1
  1212  1453  1458    1
  1213  1454  1455    1
  1214  1454  1456    1
  1215  1454  1457    1
  1216  1459  1460    1
  1217  1459  1464    1
  1218  1460  1461    1
  1219  1460  1462    1
  1220  1460  1463    1
  1221  1465  1466    1
  1222  1465  1470    1
  1223  1466  1467    1
  1224  1466  1468    1
  1225  1466  1469    1
  1226  1471  1472    1
  1227  1471  1476    1
  1228  1472  1473    1
  1229  1472  1474    1
  1230  1472  1475    1
  1231  1477  1478    1
  1232  1477  1482    1
  1233  1478  1479    1
  1234  1478  1480    1
  1235  1478  1481    1
  1236  1483  1484    1
  1237  1483  1488    1
  1238  1484  1485    1
  1239  1484  1486    1
  1240  1484  1487    1
  1241  1489  1490    1
  1242  1489  1494    1
  1243  1490  1491    1
  1244  1490  1492    1
  1245  1490  1493    1
  1246  1495  1496    1
  1247  1495  1500    1
  1248  1496  1497    1
  1249  1496  1498    1
  1250  1496  1499    1
  1251  1501  1502    1
  1252  1501  1506    1
  1253  1502  1503    1
  1254  1502  1504    1
  1255  1502  1505    1
  1256  1507  1508    1
  1257  1507  1512    1
  1258  1508  1509    1
  1259  1508  1510    1
  1260  1508  1511    1
  1261  1513  1514    1
  1262  1513  1518    1
  1263  1514  1515    1
  1264  1514  1516    1
  1265  1514  1517    1
  1266  1519  1520    1
  1267  1519  1524    1
  1268  1520  1521    1
  1269  1520  1522    1
  1270  1520  1523    1
  1271  1525  1526    1
  1272  1525  1530    1
  1273  1526  1527    1
  1274  1526  1528    1
  1275  1526  1529    1
  1276  1531  1532    1
  1277  1531  1536    1
  1278  1532  1533    1
  1279  1532  1534    1
  1280  1532  1535    1
  1281  1537  1538    1
  1282  1537  1542    1
  1283  1538  1539    1
  1284  1538  1540    1
  1285  1538  1541    1
  1286  1543  1544    1
  1287  1543  1548    1
  1288  1544  1545    1
  1289  1544  1546    1
  1290  1544  1547    1
  1291  1549  1550    1
  1292  1549  1554    1
  1293  1550  1551    1
  1294  1550  1552    1
  1295  1550  1553    1
  1296  1555  1556    1
  1297  1555  1560    1
  1298  1556  1557    1
  1299  1556  1558    1
  1300  1556  1559    1
  1301  1561  1562    1
  1302  1561  1566    1
  1303  1562  1563    1
  1304  1562  1564    1
  1305  1562  1565    1
  1306  1567  1568    1
  1307  1567  1572    1
  1308  1568  1569    1
  1309  1568  1570    1
  1310  1568  1571    1
  1311  1573  1574    1
  1312  1573  1578    1
  1313  1574  1575    1
  1314  1574  1576    1
  1315  1574  1577    1
  1316  1579  1580    1
  1317  1579  1584    1
  1318  1580  1581    1
  1319  1580  1582    1
  1320  1580  1583    1
  1321  1585  1586    1
  1322  1585  1590    1
  1323  1586  1587    1
  1324  1586  1588    1
  1325  1586  1589    1
  1326  1591  1592    1
  1327  1591  1596    1
  1328  1592  1593    1
  1329  1592  1594    1
  1330  1592  1595    1
  1331  1597  1598    1
  1332  1597  1602    1
  1333  1598  1599    1
  1334  1598  1600    1
  1335  1598  1601    1
  1336  1603  1604    1
  1337  1603  1608    1
  1338  1604  1605    1
  1339  1604  1606    1
  1340  1604  1607    1
  1341  1609  1610    1
  1342  1609  1614    1
  1343  1610  1611    1
  1344  1610  1612    1
  1345  1610  1613    1
  1346  1615  1616    1
  1347  1615  1620    1
  1348  1616  1617    1
  1349  1616  1618    1
  1350  1616  1619    1
  1351  1621  1622    1
  1352  1621  1626    1
  1353  1622  1623    1
  1354  1622  1624    1
  1355  1622  1625    1
  1356  1627  1628    1
  1357  1627  1632    1
  1358  1628  1629    1
  1359  1628  1630    1
  1360  1628  1631    1
  1361  1633  1634    1
  1362  1633  1638    1
  1363  1634  1635    1
  1364  1634  1636    1
  1365  1634  1637    1
  1366  1639  1640    1
  1367  1639  1644    1
  1368  1640  1641    1
  1369  1640  1642    1
  1370  1640  1643    1
  1371  1645  1646    1
  1372  1645  1650    1
  1373  1646  1647    1
  1374  1646  1648    1
  1375  1646  1649    1
  1376  1651  1652    1
  1377  1651  1656    1
  1378  1652  1653    1
  1379  1652  1654    1
  1380  1652  1655    1
  1381  1657  1658    1
  1382  1657  1662    1
  1383  1658  1659    1
  1384  1658  1660    1
  1385  1658  1661    1
  1386  1663  1664    1
  1387  1663  1668    1
  1388  1664  1665    1
  1389  1664  1666    1
  1390  1664  1667    1
  1391  1669  1670    1
  1392  1669  1674    1
  1393  1670  1671    1
  1394  1670  1672    1
  1395  1670  1673    1
  1396  1675  1676    1
  1397  1675  1680    1
  1398  1676  1677    1
  1399  1676  1678    1
  1400  1676  1679    1
  1401  1681  1682    1
  1402  1681  1686    1
  1403  1682  1683    1
  1404  1682  1684    1
  1405  1682  1685    1
  1406  1687  1688    1
  1407  1687  1692    1
  1408  1688  1689    1
  1409  1688  1690    1
  1410  1688  1691    1
  1411  1693  1694    1
  1412  1693  1698    1
  1413  1694  1695    1
  1414  1694  1696    1
  1415  1694  1697    1
  1416  1699  1700    1
  1417  1699  1704    1
  1418  1700  1701    1
  1419  1700  1702    1
  1420  1700  1703    1
  1421  1705  1706    1
  1422  1705  1710    1
  1423  1706  1707    1
  1424  1706  1708    1
  1425  1706  1709    1
  1426  1711  1712    1
  1427  1711  1716    1
  1428  1712  1713    1
  1429  1712  1714    1
  1430  1712  1715    1
  1431  1717  1718    1
  1432  1717  1722    1
  1433  1718  1719    1
  1434  1718  1720    1
  1435  1718  1721    1
  1436  1723  1724    1
  1437  1723  1728    1
  1438  1724  1725    1
  1439  1724  1726    1
  1440  1724  1727    1
  1441  1729  1730    1
  1442  1729  1734    1
  1443  1730  1731    1
  1444  1730  1732    1
  1445  1730  1733    1
  1446  1735  1736    1
  1447  1735  1740    1
  1448  1736  1737    1
  1449  1736  1738    1
  1450  1736  1739    1
  1451  1741  1742    1
  1452  1741  1746    1
  1453  1742  1743    1
  1454  1742  1744    1
  1455  1742  1745    1
  1456  1747  1748    1
  1457  1747  1752    1
  1458  1748  1749    1
  1459  1748  1750    1
  1460  1748  1751    1
  1461  1753  1754    1
  1462  1753  1758    1
  1463  1754  1755    1
  1464  1754  1756    1
  1465  1754  1757    1
  1466  1759  1760    1
  1467  1759  1764    1
  1468  1760  1761    1
  1469  1760  1762    1
  1470  1760  1763    1
  1471  1765  1766    1
  1472  1765  1770    1
  1473  1766  1767    1
  1474  1766  1768    1
  1475  1766  1769    1
  1476  1771  1772    1
  1477  1771  1776    1
  1478  1772  1773    1
  1479  1772  1774    1
  1480  1772  1775    1
  1481  1777  1778    1
  1482  1777  1782    1
  1483  1778  1779    1
  1484  1778  1780    1
  1485  1778  1781    1
  1486  1783  1784    1
  1487  1783  1788    1
  1488  1784  1785    1
  1489  1784  1786    1
  1490  1784  1787    1
  1491  1789  1790    1
  1492  1789  1794    1
  1493  1790  1791    1
  1494  1790  1792    1
  1495  1790  1793    1
  1496  1795  1796    1
  1497  1795  1800    1
  1498  1796  1797    1
  1499  1796  1798    1
  1500  1796  1799    1
  1501  1801  1802    1
  1502  1801  1806    1
  1503  1802  1803    1
  1504  1802  1804    1
  1505  1802  1805    1
  1506  1807  1808    1
  1507  1807  1812    1
  1508  1808  1809    1
  1509  1808  1810    1
  1510  1808  1811    1
  1511  1813  1814    1
  1512  1813  1818    1
  1513  1814  1815    1
  1514  1814  1816    1
  1515  1814  1817    1
  1516  1819  1820    1
  1517  1819  1824    1
  1518  1820  1821    1
  1519  1820  1822    1
  1520  1820  1823    1
  1521  1825  1826    1
  1522  1825  1830    1
  1523  1826  1827    1
  1524  1826  1828    1
  1525  1826  1829    1
  1526  1831  1832    1
  1527  1831  1836    1
  1528  1832  1833    1
  1529  1832  1834    1
  1530  1832  1835    1
  1531  1837  1838    1
  1532  1837  1842    1
  1533  1838  1839    1
  1534  1838  1840    1
  1535  1838  1841    1
  1536  1843  1844    1
  1537  1843  1848    1
  1538  1844  1845    1
  1539  1844  1846    1
  1540  1844  1847    1
  1541  1849  1850    1
  1542  1849  1854    1
  1543  1850  1851    1
  1544  1850  1852    1
  1545  1850  1853    1
  1546  1855  1856    1
  1547  1855  1860    1
  1548  1856  1857    1
  1549  1856  1858    1
  1550  1856  1859    1
  1551  1861  1862    1
  1552  1861  1866    1
  1553  1862  1863    1
  1554  1862  1864    1
  1555  1862  1865    1
  1556  1867  1868    1
  1557  1867  1872    1
  1558  1868  1869    1
  1559  1868  1870    1
  1560  1868  1871    1
  1561  1873  1874    1
  1562  1873  1878    1
  1563  1874  1875    1
  1564  1874  1876    1
  1565  1874  1877    1
  1566  1879  1880    1
  1567  1879  1884    1
  1568  1880  1881    1
  1569  1880  1882    1
  1570  1880  1883    1
  1571  1885  1886    1
  1572  1885  1890    1
  1573  1886  1887    1
  1574  1886  1888    1
  1575  1886  1889    1
  1576  1891  1892    1
  1577  1891  1896    1
  1578  1892  1893    1
  1579  1892  1894    1
  1580  1892  1895    1
  1581  1897  1898    1
  1582  1897  1902    1
  1583  1898  1899    1
  1584  1898  1900    1
  1585  1898  1901    1
  1586  1903  1904    1
  1587  1903  1908    1
  1588  1904  1905    1
  1589  1904  1906    1
  1590  1904  1907    1
  1591  1909  1910    1
  1592  1909  1914    1
  1593  1910  1911    1
  1594  1910  1912    1
  1595  1910  1913    1
  1596  1915  1916    1
  1597  1915  1920    1
  1598  1916  1917    1
  1599  1916  1918    1
  1600  1916  1919    1
  1601  1921  1922    1
  1602  1921  1926    1
  1603  1922  1923    1
  1604  1922  1924    1
  1605  1922  1925    1
  1606  1927  1928    1
  1607  1927  1932    1
  1608  1928  1929    1
  1609  1928  1930    1
  1610  1928  1931    1
  1611  1933  1934    1
  1612  1933  1938    1
  1613  1934  1935    1
  1614  1934  1936    1
  1615  1934  1937    1
  1616  1939  1940    1
  1617  1939  1944    1
  1618  1940  1941    1
  1619  1940  1942    1
  1620  1940  1943    1
  1621  1945  1946    1
  1622  1945  1950    1
  1623  1946  1947    1
  1624  1946  1948    1
  1625  1946  1949    1
  1626  1951  1952    1
  1627  1951  1956    1
  1628  1952  1953    1
  1629  1952  1954    1
  1630  1952  1955    1
  1631  1957  1958    1
  1632  1957  1962    1
  1633  1958  1959    1
  1634  1958  1960    1
  1635  1958  1961    1
  1636  1963  1964    1
  1637  1963  1968    1
  1638  1964  1965    1
  1639  1964  1966    1
  1640  1964  1967    1
  1641  1969  1970    1
  1642  1969  1974    1
  1643  1970  1971    1
  1644  1970  1972    1
  1645  1970  1973    1
  1646  1975  1976    1
  1647  1975  1980    1
  1648  1976  1977    1
  1649  1976  1978    1
  1650  1976  1979    1
  1651  1981  1982    1
  1652  1981  1986    1
  1653  1982  1983    1
  1654  1982  1984    1
  1655  1982  1985    1
  1656  1987  1988    1
  1657  1987  1992    1
  1658  1988  1989    1
  1659  1988  1990    1
  1660  1988  1991    1
  1661  1993  1994    1
  1662  1993  1998    1
  1663  1994  1995    1
  1664  1994  1996    1
  1665  1994  1997    1
  1666  1999  2000    1
  1667  1999  2004    1
  1668  2000  2001    1
  1669  2000  2002    1
  1670  2000  2003    1
  1671  2005  2006    1
  1672  2005  2010    1
  1673  2006  2007    1
  1674  2006  2008    1
  1675  2006  2009    1
  1676  2011  2012    1
  1677  2011  2016    1
  1678  2012  2013    1
  1679  2012  2014    1
  1680  2012  2015    1
  1681  2017  2018    1
  1682  2017  2022    1
  1683  2018  2019    1
  1684  2018  2020    1
  1685  2018  2021    1
  1686  2023  2024    1
  1687  2023  2028    1
  1688  2024  2025    1
  1689  2024  2026    1
  1690  2024  2027    1
  1691  2029  2030    1
  1692  2029  2034    1
  1693  2030  2031    1
  1694  2030  2032    1
  1695  2030  2033    1
  1696  2035  2036    1
  1697  2035  2040    1
  1698  2036  2037    1
  1699  2036  2038    1
  1700  2036  2039    1
  1701  2041  2042    1
  1702  2041  2046    1
  1703  2042  2043    1
  1704  2042  2044    1
  1705  2042  2045    1
  1706  2047  2048    1
  1707  2047  2052    1
  1708  2048  2049    1
  1709  2048  2050    1
  1710  2048  2051    1
  1711  2053  2054    1
  1712  2053  2058    1
  1713  2054  2055    1
  1714  2054  2056    1
  1715  2054  2057    1
  1716  2059  2060    1
  1717  2059  2064    1
  1718  2060  2061    1
  1719  2060  2062    1
  1720  2060  2063    1
  1721  2065  2066    1
  1722  2065  2070    1
  1723  2066  2067    1
  1724  2066  2068    1
  1725  2066  2069    1
  1726  2071  2072    1
  1727  2071  2076    1
  1728  2072  2073    1
  1729  2072  2074    1
  1730  2072  2075    1
  1731  2077  2078    1
  1732  2077  2082    1
  1733  2078  2079    1
  1734  2078  2080    1
  1735  2078  2081    1
  1736  2083  2084    1
  1737  2083  2088    1
  1738  2084  2085    1
  1739  2084  2086    1
  1740  2084  2087    1
  1741  2089  2090    1
  1742  2089  2094    1
  1743  2090  2091    1
  1744  2090  2092    1
  1745  2090  2093    1
  1746  2095  2096    1
  1747  2095  2100    1
  1748  2096  2097    1
  1749  2096  2098    1
  1750  2096  2099    1
  1751  2101  2102    1
  1752  2101  2106    1
  1753  2102  2103    1
  1754  2102  2104    1
  1755  2102  2105    1
  1756  2107  2108    1
  1757  2107  2112    1
  1758  2108  2109    1
  1759  2108  2110    1
  1760  2108  2111    1
  1761  2113  2114    1
  1762  2113  2118    1
  1763  2114  2115    1
  1764  2114  2116    1
  1765  2114  2117    1
  1766  2119  2120    1
  1767  2119  2124    1
  1768  2120  2121    1
  1769  2120  2122    1
  1770  2120  2123    1
  1771  2125  2126    1
  1772  2125  2130    1
  1773  2126  2127    1
  1774  2126  2128    1
  1775  2126  2129    1
  1776  2131  2132    1
  1777  2131  2136    1
  1778  2132  2133    1
  1779  2132  2134    1
  1780  2132  2135    1
  1781  2137  2138    1
  1782  2137  2142    1
  1783  2138  2139    1
  1784  2138  2140    1
  1785  2138  2141    1
  1786  2143  2144    1
  1787  2143  2148    1
  1788  2144  2145    1
  1789  2144  2146    1
  1790  2144  2147    1
  1791  2149  2150    1
  1792  2149  2154    1
  1793  2150  2151    1
  1794  2150  2152    1
  1795  2150  2153    1
  1796  2155  2156    1
  1797  2155  2160    1
  1798  2156  2157    1
  1799  2156  2158    1
  1800  2156  2159    1
  1801  2161  2162    1
  1802  2161  2166    1
  1803  2162  2163    1
  1804  2162  2164    1
  1805  2162  2165    1
  1806  2167  2168    1
  1807  2167  2172    1
  1808  2168  2169    1
  1809  2168  2170    1
  1810  2168  2171    1
  1811  2173  2174    1
  1812  2173  2178    1
  1813  2174  2175    1
  1814  2174  2176    1
  1815  2174  2177    1
  1816  2179  2180    1
  1817  2179  2184    1
  1818  2180  2181    1
  1819  2180  2182    1
  1820  2180  2183    1
  1821  2185  2186    1
  1822  2185  2190    1
  1823  2186  2187    1
  1824  2186  2188    1
  1825  2186  2189    1
  1826  2191  2192    1
  1827  2191  2196    1
  1828  2192  2193    1
  1829  2192  2194    1
  1830  2192  2195    1
  1831  2197  2198    1
  1832  2197  2202    1
  1833  2198  2199    1
  1834  2198  2200    1
  1835  2198  2201    1
  1836  2203  2204    1
  1837  2203  2208    1
  1838  2204  2205    1
  1839  2204  2206    1
  1840  2204  2207    1
  1841  2209  2210    1
  1842  2209  2214    1
  1843  2210  2211    1
  1844  2210  2212    1
  1845  2210  2213    1
  1846  2215  2216    1
  1847  2215  2220    1
  1848  2216  2217    1
  1849  2216  2218    1
  1850  2216  2219    1
  1851  2221  2222    1
  1852  2221  2226    1
  1853  2222  2223    1
  1854  2222  2224    1
  1855  2222  2225    1
  1856  2227  2228    1
  1857  2227  2232    1
  1858  2228  2229    1
  1859  2228  2230    1
  1860  2228  2231    1
  1861  2233  2234    1
  1862  2233  2238    1
  1863  2234  2235    1
  1864  2234  2236    1
  1865  2234  2237    1
  1866  2239  2240    1
  1867  2239  2244    1
  1868  2240  2241    1
  1869  2240  2242    1
  1870  2240  2243    1
  1871  2245  2246    1
  1872  2245  2250    1
  1873  2246  2247    1
  1874  2246  2248    1
  1875  2246  2249    1
  1876  2251  2252    1
  1877  2251  2256    1
  1878  2252  2253    1
  1879  2252  2254    1
  1880  2252  2255    1
  1881  2257  2258    1
  1882  2257  2262    1
  1883  2258  2259    1
  1884  2258  2260    1
  1885  2258  2261    1
  1886  2263  2264    1
  1887  2263  2268    1
  1888  2264  2265    1
  1889  2264  2266    1
  1890  2264  2267    1
  1891  2269  2270    1
  1892  2269  2274    1
  1893  2270  2271    1
  1894  2270  2272    1
  1895  2270  2273    1
  1896  2275  2276    1
  1897  2275  2280    1
  1898  2276  2277    1
  1899  2276  2278    1
  1900  2276  2279    1
  1901  2281  2282    1
  1902  2281  2286    1
  1903  2282  2283    1
  1904  2282  2284    1
  1905  2282  2285    1
  1906  2287  2288    1
  1907  2287  2292    1
  1908  2288  2289    1
  1909  2288  2290    1
  1910  2288  2291    1
  1911  2293  2294    1
  1912  2293  2298    1
  1913  2294  2295    1
  1914  2294  2296    1
  1915  2294  2297    1
  1916  2299  2300    1
  1917  2299  2304    1
  1918  2300  2301    1
  1919  2300  2302    1
  1920  2300  2303    1
  1921  2305  2306    1
  1922  2305  2310    1
  1923  2306  2307    1
  1924  2306  2308    1
  1925  2306  2309    1
  1926  2311  2312    1
  1927  2311  2316    1
  1928  2312  2313    1
  1929  2312  2314    1
  1930  2312  2315    1
  1931  2317  2318    1
  1932  2317  2322    1
  1933  2318  2319    1
  1934  2318  2320    1
  1935  2318  2321    1
  1936  2323  2324    1
  1937  2323  2328    1
  1938  2324  2325    1
  1939  2324  2326    1
  1940  2324  2327    1
  1941  2329  2330    1
  1942  2329  2334    1
  1943  2330  2331    1
  1944  2330  2332    1
  1945  2330  2333    1
  1946  2335  2336    1
  1947  2335  2340    1
  1948  2336  2337    1
  1949  2336  2338    1
  1950  2336  2339    1
  1951  2341  2342    1
  1952  2341  2346    1
  1953  2342  2343    1
  1954  2342  2344    1
  1955  2342  2345    1
  1956  2347  2348    1
  1957  2347  2352    1
  1958  2348  2349    1
  1959  2348  2350    1
  1960  2348  2351    1
  1961  2353  2354    1
  1962  2353  2358    1
  1963  2354  2355    1
  1964  2354  2356    1
  1965  2354  2357    1
  1966  2359  2360    1
  1967  2359  2364    1
  1968  2360  2361    1
  1969  2360  2362    1
  1970  2360  2363    1
  1971  2365  2366    1
  1972  2365  2370    1
  1973  2366  2367    1
  1974  2366  2368    1
  1975  2366  2369    1
  1976  2371  2372    1
  1977  2371  2376    1
  1978  2372  2373    1
  1979  2372  2374    1
  1980  2372  2375    1
  1981  2377  2378    1
  1982  2377  2382    1
  1983  2378  2379    1
  1984  2378  2380    1
  1985  2378  2381    1
  1986  2383  2384    1
  1987  2383  2388    1
  1988  2384  2385    1
  1989  2384  2386    1
  1990  2384  2387    1
  1991  2389  2390    1
  1992  2389  2394    1
  1993  2390  2391    1
  1994  2390  2392    1
  1995  2390  2393    1
  1996  2395  2396    1
  1997  2395  2400    1
  1998  2396  2397    1
  1999  2396  2398    1
  2000  2396  2399    1
  2001  2401  2402    1
  2002  2401  2406    1
  2003  2402  2403    1
  2004  2402  2404    1
  2005  2402  2405    1
  2006  2407  2408    1
  2007  2407  2412    1
  2008  2408  2409    1
  2009  2408  2410    1
  2010  2408  2411    1
  2011  2413  2414    1
  2012  2413  2418    1
  2013  2414  2415    1
  2014  2414  2416    1
  2015  2414  2417    1
  2016  2419  2420    1
  2017  2419  2424    1
  2018  2420  2421    1
  2019  2420  2422    1
  2020  2420  2423    1
  2021  2425  2426    1
  2022  2425  2430    1
  2023  2426  2427    1
  2024  2426  2428    1
  2025  2426  2429    1
  2026  2431  2432    1
  2027  2431  2436    1
  2028  2432  2433    1
  2029  2432  2434    1
  2030  2432  2435    1
  2031  2437  2438    1
  2032  2437  2442    1
  2033  2438  2439    1
  2034  2438  2440    1
  2035  2438  2441    1
  2036  2443  2444    1
  2037  2443  2448    1
  2038  2444  2445    1
  2039  2444  2446    1
  2040  2444  2447    1
  2041  2449  2450    1
  2042  2449  2454    1
  2043  2450  2451    1
  2044  2450  2452    1
  2045  2450  2453    1
  2046  2455  2456    1
  2047  2455  2460    1
  2048  2456  2457    1
  2049  2456  2458    1
  2050  2456  2459    1
  2051  2461  2462    1
  2052  2461  2466    1
  2053  2462  2463    1
  2054  2462  2464    1
  2055  2462  2465    1
  2056  2467  2468    1
  2057  2467  2472    1
  2058  2468  2469    1
  2059  2468  2470    1
  2060  2468  2471    1
  2061  2473  2474    1
  2062  2473  2478    1
  2063  2474  2475    1
  2064  2474  2476    1
  2065  2474  2477    1
  2066  2479  2480    1
  2067  2479  2484    1
  2068  2480  2481    1
  2069  2480  2482    1
  2070  2480  2483    1
  2071  2485  2486    1
  2072  2485  2490    1
  2073  2486  2487    1
  2074  2486  2488    1
  2075  2486  2489    1
  2076  2491  2492    1
  2077  2491  2496    1
  2078  2492  2493    1
  2079  2492  2494    1
  2080  2492  2495    1
  2081  2497  2498    1
  2082  2497  2502    1
  2083  2498  2499    1
  2084  2498  2500    1
  2085  2498  2501    1
  2086  2503  2504    1
  2087  2503  2508    1
  2088  2504  2505    1
  2089  2504  2506    1
  2090  2504  2507    1
  2091  2509  2510    1
  2092  2509  2514    1
  2093  2510  2511    1
  2094  2510  2512    1
  2095  2510  2513    1
  2096  2515  2516    1
  2097  2515  2520    1
  2098  2516  2517    1
  2099  2516  2518    1
  2100  2516  2519    1
  2101  2521  2522    1
  2102  2521  2526    1
  2103  2522  2523    1
  2104  2522  2524    1
  2105  2522  2525    1
  2106  2527  2528    1
  2107  2527  2532    1
  2108  2528  2529    1
  2109  2528  2530    1
  2110  2528  2531    1
  2111  2533  2534    1
  2112  2533  2538    1
  2113  2534  2535    1
  2114  2534  2536    1
  2115  2534  2537    1
  2116  2539  2540    1
  2117  2539  2544    1
  2118  2540  2541    1
  2119  2540  2542    1
  2120  2540  2543    1
  2121  2545  2546    1
  2122  2545  2550    1
  2123  2546  2547    1
  2124  2546  2548    1
  2125  2546  2549    1
  2126  2551  2552    1
  2127  2551  2556    1
  2128  2552  2553    1
  2129  2552  2554    1
  2130  2552  2555    1
  2131  2557  2558    1
  2132  2557  2562    1
  2133  2558  2559    1
  2134  2558  2560    1
  2135  2558  2561    1
  2136  2563  2564    1
  2137  2563  2568    1
  2138  2564  2565    1
  2139  2564  2566    1
  2140  2564  2567    1
  2141  2569  2570    1
  2142  2569  2574    1
  2143  2570  2571    1
  2144  2570  2572    1
  2145  2570  2573    1
  2146  2575  2576    1
  2147  2575  2580    1
  2148  2576  2577    1
  2149  2576  2578    1
  2150  2576  2579    1
  2151  2581  2582    1
  2152  2581  2586    1
  2153  2582  2583    1
  2154  2582  2584    1
  2155  2582  2585    1
  2156  2587  2588    1
  2157  2587  2592    1
  2158  2588  2589    1
  2159  2588  2590    1
  2160  2588  2591    1
  2161  2593  2594    1
  2162  2593  2598    1
  2163  2594  2595    1
  2164  2594  2596    1
  2165  2594  2597    1
  2166  2599  2600    1
  2167  2599  2604    1
  2168  2600  2601    1
  2169  2600  2602    1
  2170  2600  2603    1
  2171  2605  2606    1
  2172  2605  2610    1
  2173  2606  2607    1
  2174  2606  2608    1
  2175  2606  2609    1
  2176  2611  2612    1
  2177  2611  2616    1
  2178  2612  2613    1
  2179  2612  2614    1
  2180  2612  2615    1
  2181  2617  2618    1
  2182  2617  2622    1
  2183  2618  2619    1
  2184  2618  2620    1
  2185  2618  2621    1
  2186  2623  2624    1
  2187  2623  2628    1
  2188  2624  2625    1
  2189  2624  2626    1
  2190  2624  2627    1
  2191  2629  2630    1
  2192  2629  2634    1
  2193  2630  2631    1
  2194  2630  2632    1
  2195  2630  2633    1
  2196  2635  2636    1
  2197  2635  2640    1
  2198  2636  2637    1
  2199  2636  2638    1
  2200  2636  2639    1
  2201  2641  2642    1
  2202  2641  2646    1
  2203  2642  2643    1
  2204  2642  2644    1
  2205  2642  2645    1
  2206  2647  2648    1
  2207  2647  2652    1
  2208  2648  2649    1
  2209  2648  2650    1
  2210  2648  2651    1
  2211  2653  2654    1
  2212  2653  2658    1
  2213  2654  2655    1
  2214  2654  2656    1
  2215  2654  2657    1
  2216  2659  2660    1
  2217  2659  2664    1
  2218  2660  2661    1
  2219  2660  2662    1
  2220  2660  2663    1
  2221  2665  2666    1
  2222  2665  2670    1
  2223  2666  2667    1
  2224  2666  2668    1
  2225  2666  2669    1
  2226  2671  2672    1
  2227  2671  2676    1
  2228  2672  2673    1
  2229  2672  2674    1
  2230  2672  2675    1
  2231  2677  2678    1
  2232  2677  2682    1
  2233  2678  2679    1
  2234  2678  2680    1
  2235  2678  2681    1
  2236  2683  2684    1
  2237  2683  2688    1
  2238  2684  2685    1
  2239  2684  2686    1
  2240  2684  2687    1
  2241  2689  2690    1
  2242  2689  2694    1
  2243  2690  2691    1
  2244  2690  2692    1
  2245  2690  2693    1
  2246  2695  2696    1
  2247  2695  2700    1
  2248  2696  2697    1
  2249  2696  2698    1
  2250  2696  2699    1
  2251  2701  2702    1
  2252  2701  2706    1
  2253  2702  2703    1
  2254  2702  2704    1
  2255  2702  2705    1
  2256  2707  2708    1
  2257  2707  2712    1
  2258  2708  2709    1
  2259  2708  2710    1
  2260  2708  2711    1
  2261  2713  2714    1
  2262  2713  2718    1
  2263  2714  2715    1
  2264  2714  2716    1
  2265  2714  2717    1
  2266  2719  2720    1
  2267  2719  2724    1
  2268  2720  2721    1
  2269  2720  2722    1
  2270  2720  2723    1
  2271  2725  2726    1
  2272  2725  2730    1
  2273  2726  2727    1
  2274  2726  2728    1
  2275  2726  2729    1
  2276  2731  2732    1
  2277  2731  2736    1
  2278  2732  2733    1
  2279  2732  2734    1
  2280  2732  2735    1
  2281  2737  2738    1
  2282  2737  2742    1
  2283  2738  2739    1
  2284  2738  2740    1
  2285  2738  2741    1
  2286  2743  2744    1
  2287  2743  2748    1
  2288  2744  2745    1
  2289  2744  2746    1
  2290  2744  2747    1
  2291  2749  2750    1
  2292  2749  2754    1
  2293  2750  2751    1
  2294  2750  2752    1
  2295  2750  2753    1
  2296  2755  2756    1
  2297  2755  2760    1
  2298  2756  2757    1
  2299  2756  2758    1
  2300  2756  2759    1
  2301  2761  2762    1
  2302  2761  2766    1
  2303  2762  2763    1
  2304  2762  2764    1
  2305  2762  2765    1
  2306  2767  2768    1
  2307  2767  2772    1
  2308  2768  2769    1
  2309  2768  2770    1
  2310  2768  2771    1
  2311  2773  2774    1
  2312  2773  2778    1
  2313  2774  2775    1
  2314  2774  2776    1
  2315  2774  2777    1
  2316  2779  2780    1
  2317  2779  2784    1
  2318  2780  2781    1
  2319  2780  2782    1
  2320  2780  2783    1
  2321  2785  2786    1
  2322  2785  2790    1
  2323  2786  2787    1
  2324  2786  2788    1
  2325  2786  2789    1
  2326  2791  2792    1
  2327  2791  2796    1
  2328  2792  2793    1
  2329  2792  2794    1
  2330  2792  2795    1
  2331  2797  2798    1
  2332  2797  2802    1
  2333  2798  2799    1
  2334  2798  2800    1
  2335  2798  2801    1
  2336  2803  2804    1
  2337  2803  2808    1
  2338  2804  2805    1
  2339  2804  2806    1
  2340  2804  2807    1
  2341  2809  2810    1
  2342  2809  2814    1
  2343  2810  2811    1
  2344  2810  2812    1
  2345  2810  2813    1
  2346  2815  2816    1
  2347  2815  2820    1
  2348  2816  2817    1
  2349  2816  2818    1
  2350  2816  2819    1
  2351  2821  2822    1
  2352  2821  2826    1
  2353  2822  2823    1
  2354  2822  2824    1
  2355  2822  2825    1
  2356  2827  2828    1
  2357  2827  2832    1
  2358  2828  2829    1
  2359  2828  2830    1
  2360  2828  2831    1
  2361  2833  2834    1
  2362  2833  2838    1
  2363  2834  2835    1
  2364  2834  2836    1
  2365  2834  2837    1
  2366  2839  2840    1
  2367  2839  2844    1
  2368  2840  2841    1
  2369  2840  2842    1
  2370  2840  2843    1
  2371  2845  2846    1
  2372  2845  2850    1
  2373  2846  2847    1
  2374  2846  2848    1
  2375  2846  2849    1
  2376  2851  2852    1
  2377  2851  2856    1
  2378  2852  2853    1
  2379  2852  2854    1
  2380  2852  2855    1
  2381  2857  2858    1
  2382  2857  2862    1
  2383  2858  2859    1
  2384  2858  2860    1
  2385  2858  2861    1
  2386  2863  2864    1
  2387  2863  2868    1
  2388  2864  2865    1
  2389  2864  2866    1
  2390  2864  2867    1
  2391  2869  2870    1
  2392  2869  2874    1
  2393  2870  2871    1
  2394  2870  2872    1
  2395  2870  2873    1
  2396  2875  2876    1
  2397  2875  2880    1
  2398  2876  2877    1
  2399  2876  2878    1
  2400  2876  2879    1
  2401  2881  2882    1
  2402  2881  2886    1
  2403  2882  2883    1
  2404  2882  2884    1
  2405  2882  2885    1
  2406  2887  2888    1
  2407  2887  2892    1
  2408  2888  2889    1
  2409  2888  2890    1
  2410  2888  2891    1
  2411  2893  2894    1
  2412  2893  2898    1
  2413  2894  2895    1
  2414  2894  2896    1
  2415  2894  2897    1
  2416  2899  2900    1
  2417  2899  2904    1
  2418  2900  2901    1
  2419  2900  2902    1
  2420  2900  2903    1
  2421  2905  2906    1
  2422  2905  2910    1
  2423  2906  2907    1
  2424  2906  2908    1
  2425  2906  2909    1
  2426  2911  2912    1
  2427  2911  2916    1
  2428  2912  2913    1
  2429  2912  2914    1
  2430  2912  2915    1
  2431  2917  2918    1
  2432  2917  2922    1
  2433  2918  2919    1
  2434  2918  2920    1
  2435  2918  2921    1
  2436  2923  2924    1
  2437  2923  2928    1
  2438  2924  2925    1
  2439  2924  2926    1
  2440  2924  2927    1
  2441  2929  2930    1
  2442  2929  2934    1
  2443  2930  2931    1
  2444  2930  2932    1
  2445  2930  2933    1
  2446  2935  2936    1
  2447  2935  2940    1
  2448  2936  2937    1
  2449  2936  2938    1
  2450  2936  2939    1
  2451  2941  2942    1
  2452  2941  2946    1
  2453  2942  2943    1
  2454  2942  2944    1
  2455  2942  2945    1
  2456  2947  2948    1
  2457  2947  2952    1
  2458  2948  2949    1
  2459  2948  2950    1
  2460  2948  2951    1
  2461  2953  2954    1
  2462  2953  2958    1
  2463  2954  2955    1
  2464  2954  2956    1
  2465  2954  2957    1
  2466  2959  2960    1
  2467  2959  2964    1
  2468  2960  2961    1
  2469  2960  2962    1
  2470  2960  2963    1
  2471  2965  2966    1
  2472  2965  2970    1
  2473  2966  2967    1
  2474  2966  2968    1
  2475  2966  2969    1
  2476  2971  2972    1
  2477  2971  2976    1
  2478  2972  2973    1
  2479  2972  2974    1
  2480  2972  2975    1
  2481  2977  2978    1
  2482  2977  2982    1
  2483  2978  2979    1
  2484  2978  2980    1
  2485  2978  2981    1
  2486  2983  2984    1
  2487  2983  2988    1
  2488  2984  2985    1
  2489  2984  2986    1
  2490  2984  2987    1
  2491  2989  2990    1
  2492  2989  2994    1
  2493  2990  2991    1
  2494  2990  2992    1
  2495  2990  2993    1
  2496  2995  2996    1
  2497  2995  3000    1
  2498  2996  2997    1
  2499  2996  2998    1
  2500  2996  2999    1
  2501  3001  3002    1
  2502  3001  3006    1
  2503  3002  3003    1
  2504  3002  3004    1
  2505  3002  3005    1
  2506  3007  3008    1
  2507  3007  3012    1
  2508  3008  3009    1
  2509  3008  3010    1
  2510  3008  3011    1
  2511  3013  3014    1
  2512  3013  3018    1
  2513  3014  3015    1
  2514  3014  3016    1
  2515  3014  3017    1
  2516  3019  3020    1
  2517  3019  3024    1
  2518  3020  3021    1
  2519  3020  3022    1
  2520  3020  3023    1
  2521  3025  3026    1
  2522  3025  3030    1
  2523  3026  3027    1
  2524  3026  3028    1
  2525  3026  3029    1
  2526  3031  3032    1
  2527  3031  3036    1
  2528  3032  3033    1
  2529  3032  3034    1
  2530  3032  3035    1
  2531  3037  3038    1
  2532  3037  3042    1
  2533  3038  3039    1
  2534  3038  3040    1
  2535  3038  3041    1
  2536  3043  3044    1
  2537  3043  3048    1
  2538  3044  3045    1
  2539  3044  3046    1
  2540  3044  3047    1
  2541  3049  3050    1
  2542  3049  3054    1
  2543  3050  3051    1
  2544  3050  3052    1
  2545  3050  3053    1
  2546  3055  3056    1
  2547  3055  3060    1
  2548  3056  3057    1
  2549  3056  3058    1
  2550  3056  3059    1
  2551  3061  3062    1
  2552  3061  3066    1
  2553  3062  3063    1
  2554  3062  3064    1
  2555  3062  3065    1
  2556  3067  3068    1
  2557  3067  3072    1
  2558  3068  3069    1
  2559  3068  3070    1
  2560  3068  3071    1
  2561  3073  3074    1
  2562  3073  3078    1
  2563  3074  3075    1
  2564  3074  3076    1
  2565  3074  3077    1
  2566  3079  3080    1
  2567  3079  3084    1
  2568  3080  3081    1
  2569  3080  3082    1
  2570  3080  3083    1
  2571  3085  3086    1
  2572  3085  3090    1
  2573  3086  3087    1
  2574  3086  3088    1
  2575  3086  3089    1
  2576  3091  3092    1
  2577  3091  3096    1
  2578  3092  3093    1
  2579  3092  3094    1
  2580  3092  3095    1
  2581  3097  3098    1
  2582  3097  3102    1
  2583  3098  3099    1
  2584  3098  3100    1
  2585  3098  3101    1
  2586  3103  3104    1
  2587  3103  3108    1
  2588  3104  3105    1
  2589  3104  3106    1
  2590  3104  3107    1
  2591  3109  3110    1
  2592  3109  3114    1
  2593  3110  3111    1
  2594  3110  3112    1
  2595  3110  3113    1
  2596  3115  3116    1
  2597  3115  3120    1
  2598  3116  3117    1
  2599  3116  3118    1
  2600  3116  3119    1
  2601  3121  3122    1
  2602  3121  3126    1
  2603  3122  3123    1
  2604  3122  3124    1
  2605  3122  3125    1
  2606  3127  3128    1
  2607  3127  3132    1
  2608  3128  3129    1
  2609  3128  3130    1
  2610  3128  3131    1
  2611  3133  3134    1
  2612  3133  3138    1
  2613  3134  3135    1
  2614  3134  3136    1
  2615  3134  3137    1
  2616  3139  3140    1
  2617  3139  3144    1
  2618  3140  3141    1
  2619  3140  3142    1
  2620  3140  3143    1
  2621  3145  3146    1
  2622  3145  3150    1
  2623  3146  3147    1
  2624  3146  3148    1
  2625  3146  3149    1
  2626  3151  3152    1
  2627  3151  3156    1
  2628  3152  3153    1
  2629  3152  3154    1
  2630  3152  3155    1
  2631  3157  3158    1
  2632  3157  3162    1
  2633  3158  3159    1
  2634  3158  3160    1
  2635  3158  3161    1
  2636  3163  3164    1
  2637  3163  3168    1
  2638  3164  3165    1
  2639  3164  3166    1
  2640  3164  3167    1
  2641  3169  3170    1
  2642  3169  3174    1
  2643  3170  3171    1
  2644  3170  3172    1
  2645  3170  3173    1
  2646  3175  3176    1
  2647  3175  3180    1
  2648  3176  3177    1
  2649  3176  3178    1
  2650  3176  3179    1
  2651  3181  3182    1
  2652  3181  3186    1
  2653  3182  3183    1
  2654  3182  3184    1
  2655  3182  3185    1
  2656  3187  3188    1
  2657  3187  3192    1
  2658  3188  3189    1
  2659  3188  3190    1
  2660  3188  3191    1
  2661  3193  3194    1
  2662  3193  3198    1
  2663  3194  3195    1
  2664  3194  3196    1
  2665  3194  3197    1
  2666  3199  3200    1
  2667  3199  3204    1
  2668  3200  3201    1
  2669  3200  3202    1
  2670  3200  3203    1
  2671  3205  3206    1
  2672  3205  3210    1
  2673  3206  3207    1
  2674  3206  3208    1
  2675  3206  3209    1
  2676  3211  3212    1
  2677  3211  3216    1
  2678  3212  3213    1
  2679  3212  3214    1
  2680  3212  3215    1
  2681  3217  3218    1
  2682  3217  3222    1
  2683  3218  3219    1
  2684  3218  3220    1
  2685  3218  3221    1
  2686  3223  3224    1
  2687  3223  3228    1
  2688  3224  3225    1
  2689  3224  3226    1
  2690  3224  3227    1
  2691  3229  3230    1
  2692  3229  3234    1
  2693  3230  3231    1
  2694  3230  3232    1
  2695  3230  3233    1
  2696  3235  3236    1
  2697  3235  3240    1
  2698  3236  3237    1
  2699  3236  3238    1
  2700  3236  3239    1
  2701  3241  3242    1
  2702  3241  3246    1
  2703  3242  3243    1
  2704  3242  3244    1
  2705  3242  3245    1
  2706  3247  3248    1
  2707  3247  3252    1
  2708  3248  3249    1
  2709  3248  3250    1
  2710  3248  3251    1
  2711  3253  3254    1
  2712  3253  3258    1
  2713  3254  3255    1
  2714  3254  3256    1
  2715  3254  3257    1
  2716  3259  3260    1
  2717  3259  3264    1
  2718  3260  3261    1
  2719  3260  3262    1
  2720  3260  3263    1
  2721  3265  3266    1
  2722  3265  3270    1
  2723  3266  3267    1
  2724  3266  3268    1
  2725  3266  3269    1
  2726  3271  3272    1
  2727  3271  3276    1
  2728  3272  3273    1
  2729  3272  3274    1
  2730  3272  3275    1
  2731  3277  3278    1
  2732  3277  3282    1
  2733  3278  3279    1
  2734  3278  3280    1
  2735  3278  3281    1
  2736  3283  3284    1
  2737  3283  3288    1
  2738  3284  3285    1
  2739  3284  3286    1
  2740  3284  3287    1
  2741  3289  3290    1
  2742  3289  3294    1
  2743  3290  3291    1
  2744  3290  3292    1
  2745  3290  3293    1
  2746  3295  3296    1
  2747  3295  3300    1
  2748  3296  3297    1
  2749  3296  3298    1
  2750  3296  3299    1
  2751  3301  3302    1
  2752  3301  3306    1
  2753  3302  3303    1
  2754  3302  3304    1
  2755  3302  3305    1
  2756  3307  3308    1
  2757  3307  3312    1
  2758  3308  3309    1
  2759  3308  3310    1
  2760  3308  3311    1
  2761  3313  3314    1
  2762  3313  3318    1
  2763  3314  3315    1
  2764  3314  3316    1
  2765  3314  3317    1
  2766  3319  3320    1
  2767  3319  3324    1
  2768  3320  3321    1
  2769  3320  3322    1
  2770  3320  3323    1
  2771  3325  3326    1
  2772  3325  3330    1
  2773  3326  3327    1
  2774  3326  3328    1
  2775  3326  3329    1
  2776  3331  3332    1
  2777  3331  3336    1
  2778  3332  3333    1
  2779  3332  3334    1
  2780  3332  3335    1
  2781  3337  3338    1
  2782  3337  3342    1
  2783  3338  3339    1
  2784  3338  3340    1
  2785  3338  3341    1
  2786  3343  3344    1
  2787  3343  3348    1
  2788  3344  3345    1
  2789  3344  3346    1
  2790  3344  3347    1
  2791  3349  3350    1
  2792  3349  3354    1
  2793  3350  3351    1
  2794  3350  3352    1
  2795  3350  3353    1
  2796  3355  3356    1
  2797  3355  3360    1
  2798  3356  3357    1
  2799  3356  3358    1
  2800  3356  3359    1
  2801  3361  3362    1
  2802  3361  3366    1
  2803  3362  3363    1
  2804  3362  3364    1
  2805  3362  3365    1
  2806  3367  3368    1
  2807  3367  3372    1
  2808  3368  3369    1
  2809  3368  3370    1
  2810  3368  3371    1
  2811  3373  3374    1
  2812  3373  3378    1
  2813  3374  3375    1
  2814  3374  3376    1
  2815  3374  3377    1
  2816  3379  3380    1
  2817  3379  3384    1
  2818  3380  3381    1
  2819  3380  3382    1
  2820  3380  3383    1
  2821  3385  3386    1
  2822  3385  3390    1
  2823  3386  3387    1
  2824  3386  3388    1
  2825  3386  3389    1
  2826  3391  3392    1
  2827  3391  3396    1
  2828  3392  3393    1
  2829  3392  3394    1
  2830  3392  3395    1
  2831  3397  3398    1
  2832  3397  3402    1
  2833  3398  3399    1
  2834  3398  3400    1
  2835  3398  3401    1
  2836  3403  3404    1
  2837  3403  3408    1
  2838  3404  3405    1
  2839  3404  3406    1
  2840  3404  3407    1
  2841  3409  3410    1
  2842  3409  3414    1
  2843  3410  3411    1
  2844  3410  3412    1
  2845  3410  3413    1
  2846  3415  3416    1
  2847  3415  3420    1
  2848  3416  3417    1
  2849  3416  3418    1
  2850  3416  3419    1
  2851  3421  3422    1
  2852  3421  3426    1
  2853  3422  3423    1
  2854  3422  3424    1
  2855  3422  3425    1
  2856  3427  3428    1
  2857  3427  3432    1
  2858  3428  3429    1
  2859  3428  3430    1
  2860  3428  3431    1
  2861  3433  3434    1
  2862  3433  3438    1
  2863  3434  3435    1
  2864  3434  3436    1
  2865  3434  3437    1
  2866  3439  3440    1
  2867  3439  3444    1
  2868  3440  3441    1
  2869  3440  3442    1
  2870  3440  3443    1
  2871  3445  3446    1
  2872  3445  3450    1
  2873  3446  3447    1
  2874  3446  3448    1
  2875  3446  3449    1
  2876  3451  3452    1
  2877  3451  3456    1
  2878  3452  3453    1
  2879  3452  3454    1
  2880  3452  3455    1
  2881  3457  3458    1
  2882  3457  3462    1
  2883  3458  3459    1
  2884  3458  3460    1
  2885  3458  3461    1
  2886  3463  3464    1
  2887  3463  3468    1
  2888  3464  3465    1
  2889  3464  3466    1
  2890  3464  3467    1
  2891  3469  3470    1
  2892  3469  3474    1
  2893  3470  3471    1
  2894  3470  3472    1
  2895  3470  3473    1
  2896  3475  3476    1
  2897  3475  3480    1
  2898  3476  3477    1
  2899  3476  3478    1
  2900  3476  3479    1
  2901  3481  3482    1
  2902  3481  3486    1
  2903  3482  3483    1
  2904  3482  3484    1
  2905  3482  3485    1
  2906  3487  3488    1
  2907  3487  3492    1
  2908  3488  3489    1
  2909  3488  3490    1
  2910  3488  3491    1
  2911  3493  3494    1
  2912  3493  3498    1
  2913  3494  3495    1
  2914  3494  3496    1
  2915  3494  3497    1
  2916  3499  3500    1
  2917  3499  3504    1
  2918  3500  3501    1
  2919  3500  3502    1
  2920  3500  3503    1
  2921  3505  3506    1
  2922  3505  3510    1
  2923  3506  3507    1
  2924  3506  3508    1
  2925  3506  3509    1
  2926  3511  3512    1
  2927  3511  3516    1
  2928  3512  3513    1
  2929  3512  3514    1
  2930  3512  3515    1
  2931  3517  3518    1
  2932  3517  3522    1
  2933  3518  3519    1
  2934  3518  3520    1
  2935  3518  3521    1
  2936  3523  3524    1
  2937  3523  3528    1
  2938  3524  3525    1
  2939  3524  3526    1
  2940  3524  3527    1
  2941  3529  3530    1
  2942  3529  3534    1
  2943  3530  3531    1
  2944  3530  3532    1
  2945  3530  3533    1
  2946  3535  3536    1
  2947  3535  3540    1
  2948  3536  3537    1
  2949  3536  3538    1
  2950  3536  3539    1
  2951  3541  3542    1
  2952  3541  3546    1
  2953  3542  3543    1
  2954  3542  3544    1
  2955  3542  3545    1
  2956  3547  3548    1
  2957  3547  3552    1
  2958  3548  3549    1
  2959  3548  3550    1
  2960  3548  3551    1
  2961  3553  3554    1
  2962  3553  3558    1
  2963  3554  3555    1
  2964  3554  3556    1
  2965  3554  3557    1
  2966  3559  3560    1
  2967  3559  3564    1
  2968  3560  3561    1
  2969  3560  3562    1
  2970  3560  3563    1
  2971  3565  3566    1
  2972  3565  3570    1
  2973  3566  3567    1
  2974  3566  3568    1
  2975  3566  3569    1
  2976  3571  3572    1
  2977  3571  3576    1
  2978  3572  3573    1
  2979  3572  3574    1
  2980  3572  3575    1
  2981  3577  3578    1
  2982  3577  3582    1
  2983  3578  3579    1
  2984  3578  3580    1
  2985  3578  3581    1
  2986  3583  3584    1
  2987  3583  3588    1
  2988  3584  3585    1
  2989  3584  3586    1
  2990  3584  3587    1
  2991  3589  3590    1
  2992  3589  3594    1
  2993  3590  3591    1
  2994  3590  3592    1
  2995  3590  3593    1
  2996  3595  3596    1
  2997  3595  3600    1
  2998  3596  3597    1
  2999  3596  3598    1
  3000  3596  3599    1
  3001  3601  3602    1
  3002  3601  3606    1
  3003  3602  3603    1
  3004  3602  3604    1
  3005  3602  3605    1
  3006  3607  3608    1
  3007  3607  3612    1
  3008  3608  3609    1
  3009  3608  3610    1
  3010  3608  3611    1
  3011  3613  3614    1
  3012  3613  3618    1
  3013  3614  3615    1
  3014  3614  3616    1
  3015  3614  3617    1
  3016  3619  3620    1
  3017  3619  3624    1
  3018  3620  3621    1
  3019  3620  3622    1
  3020  3620  3623    1
  3021  3625  3626    1
  3022  3625  3630    1
  3023  3626  3627    1
  3024  3626  3628    1
  3025  3626  3629    1
  3026  3631  3632    1
  3027  3631  3636    1
  3028  3632  3633    1
  3029  3632  3634    1
  3030  3632  3635    1
  3031  3637  3638    1
  3032  3637  3642    1
  3033  3638  3639    1
  3034  3638  3640    1
  3035  3638  3641    1
  3036  3643  3644    1
  3037  3643  3648    1
  3038  3644  3645    1
  3039  3644  3646    1
  3040  3644  3647    1
  3041  3649  3650    1
  3042  3649  3654    1
  3043  3650  3651    1
  3044  3650  3652    1
  3045  3650  3653    1
  3046  3655  3656    1
  3047  3655  3660    1
  3048  3656  3657    1
  3049  3656  3658    1
  3050  3656  3659    1
  3051  3661  3662    1
  3052  3661  3666    1
  3053  3662  3663    1
  3054  3662  3664    1
  3055  3662  3665    1
  3056  3667  3668    1
  3057  3667  3672    1
  3058  3668  3669    1
  3059  3668  3670    1
  3060  3668  3671    1
  3061  3673  3674    1
  3062  3673  3678    1
  3063  3674  3675    1
  3064  3674  3676    1
  3065  3674  3677    1
  3066  3679  3680    1
  3067  3679  3684    1
  3068  3680  3681    1
  3069  3680  3682    1
  3070  3680  3683    1
  3071  3685  3686    1
  3072  3685  3690    1
  3073  3686  3687    1
  3074  3686  3688    1
  3075  3686  3689    1
  3076  3691  3692    1
  3077  3691  3696    1
  3078  3692  3693    1
  3079  3692  3694    1
  3080  3692  3695    1
  3081  3697  3698    1
  3082  3697  3702    1
  3083  3698  3699    1
  3084  3698  3700    1
  3085  3698  3701    1
  3086  3703  3704    1
  3087  3703  3708    1
  3088  3704  3705    1
  3089  3704  3706    1
  3090  3704  3707    1
  3091  3709  3710    1
  3092  3709  3714    1
  3093  3710  3711    1
  3094  3710  3712    1
  3095  3710  3713    1
  3096  3715  3716    1
  3097  3715  3720    1
  3098  3716  3717    1
  3099  3716  3718    1
  3100  3716  3719    1
  3101  3721  3722    1
  3102  3721  3726    1
  3103  3722  3723    1
  3104  3722  3724    1
  3105  3722  3725    1
  3106  3727  3728    1
  3107  3727  3732    1
  3108  3728  3729    1
  3109  3728  3730    1
  3110  3728  3731    1
  3111  3733  3734    1
  3112  3733  3738    1
  3113  3734  3735    1
  3114  3734  3736    1
  3115  3734  3737    1
  3116  3739  3740    1
  3117  3739  3744    1
  3118  3740  3741    1
  3119  3740  3742    1
  3120  3740  3743    1
  3121  3745  3746    1
  3122  3745  3750    1
  3123  3746  3747    1
  3124  3746  3748    1
  3125  3746  3749    1
  3126  3751  3752    1
  3127  3751  3756    1
  3128  3752  3753    1
  3129  3752  3754    1
  3130  3752  3755    1
  3131  3757  3758    1
  3132  3757  3762    1
  3133  3758  3759    1
  3134  3758  3760    1
  3135  3758  3761    1
  3136  3763  3764    1
  3137  3763  3768    1
  3138  3764  3765    1
  3139  3764  3766    1
  3140  3764  3767    1
  3141  3769  3770    1
  3142  3769  3774    1
  3143  3770  3771    1
  3144  3770  3772    1
  3145  3770  3773    1
  3146  3775  3776    1
  3147  3775  3780    1
  3148  3776  3777    1
  3149  3776  3778    1
  3150  3776  3779    1
  3151  3781  3782    1
  3152  3781  3786    1
  3153  3782  3783    1
  3154  3782  3784    1
  3155  3782  3785    1
  3156  3787  3788    1
  3157  3787  3792    1
  3158  3788  3789    1
  3159  3788  3790    1
  3160  3788  3791    1
  3161  3793  3794    1
  3162  3793  3798    1
  3163  3794  3795    1
  3164  3794  3796    1
  3165  3794  3797    1
  3166  3799  3800    1
  3167  3799  3804    1
  3168  3800  3801    1
  3169  3800  3802    1
  3170  3800  3803    1
  3171  3805  3806    1
  3172  3805  3810    1
  3173  3806  3807    1
  3174  3806  3808    1
  3175  3806  3809    1
  3176  3811  3812    1
  3177  3811  3816    1
  3178  3812  3813    1
  3179  3812  3814    1
  3180  3812  3815    1
  3181  3817  3818    1
  3182  3817  3822    1
  3183  3818  3819    1
  3184  3818  3820    1
  3185  3818  3821    1
  3186  3823  3824    1
  3187  3823  3828    1
  3188  3824  3825    1
  3189  3824  3826    1
  3190  3824  3827    1
  3191  3829  3830    1
  3192  3829  3834    1
  3193  3830  3831    1
  3194  3830  3832    1
  3195  3830  3833    1
  3196  3835  3836    1
  3197  3835  3840    1
  3198  3836  3837    1
  3199  3836  3838    1
  3200  3836  3839    1
  3201  3841  3842    1
  3202  3841  3846    1
  3203  3842  3843    1
  3204  3842  3844    1
  3205  3842  3845    1
  3206  3847  3848    1
  3207  3847  3852    1
  3208  3848  3849    1
  3209  3848  3850    1
  3210  3848  3851    1
  3211  3853  3854    1
  3212  3853  3858    1
  3213  3854  3855    1
  3214  3854  3856    1
  3215  3854  3857    1
  3216  3859  3860    1
  3217  3859  3864    1
  3218  3860  3861    1
  3219  3860  3862    1
  3220  3860  3863    1
  3221  3865  3866    1
  3222  3865  3870    1
  3223  3866  3867    1
  3224  3866  3868    1
  3225  3866  3869    1
  3226  3871  3872    1
  3227  3871  3876    1
  3228  3872  3873    1
  3229  3872  3874    1
  3230  3872  3875    1
  3231  3877  3878    1
  3232  3877  3882    1
  3233  3878  3879    1
  3234  3878  3880    1
  3235  3878  3881    1
  3236  3883  3884    1
  3237  3883  3888    1
  3238  3884  3885    1
  3239  3884  3886    1
  3240  3884  3887    1
  3241  3889  3890    1
  3242  3889  3894    1
  3243  3890  3891    1
  3244  3890  3892    1
  3245  3890  3893    1
  3246  3895  3896    1
  3247  3895  3900    1
  3248  3896  3897    1
  3249  3896  3898    1
  3250  3896  3899    1
  3251  3901  3902    1
  3252  3901  3906    1
  3253  3902  3903    1
  3254  3902  3904    1
  3255  3902  3905    1
  3256  3907  3908    1
  3257  3907  3912    1
  3258  3908  3909    1
  3259  3908  3910    1
  3260  3908  3911    1
  3261  3913  3914    1
  3262  3913  3918    1
  3263  3914  3915    1
  3264  3914  3916    1
  3265  3914  3917    1
  3266  3919  3920    1
  3267  3919  3924    1
  3268  3920  3921    1
  3269  3920  3922    1
  3270  3920  3923    1
  3271  3925  3926    1
  3272  3925  3930    1
  3273  3926  3927    1
  3274  3926  3928    1
  3275  3926  3929    1
  3276  3931  3932    1
  3277  3931  3936    1
  3278  3932  3933    1
  3279  3932  3934    1
  3280  3932  3935    1
  3281  3937  3938    1
  3282  3937  3942    1
  3283  3938  3939    1
  3284  3938  3940    1
  3285  3938  3941    1
  3286  3943  3944    1
  3287  3943  3948    1
  3288  3944  3945    1
  3289  3944  3946    1
  3290  3944  3947    1
  3291  3949  3950    1
  3292  3949  3954    1
  3293  3950  3951    1
  3294  3950  3952    1
  3295  3950  3953    1
  3296  3955  3956    1
  3297  3955  3960    1
  3298  3956  3957    1
  3299  3956  3958    1
  3300  3956  3959    1
  3301  3961  3962    1
  3302  3961  3966    1
  3303  3962  3963    1
  3304  3962  3964    1
  3305  3962  3965    1
  3306  3967  3968    1
  3307  3967  3972    1
  3308  3968  3969    1
  3309  3968  3970    1
  3310  3968  3971    1
  3311  3973  3974    1
  3312  3973  3978    1
  3313  3974  3975    1
  3314  3974  3976    1
  3315  3974  3977    1
  3316  3979  3980    1
  3317  3979  3984    1
  3318  3980  3981    1
  3319  3980  3982    1
  3320  3980  3983    1
  3321  3985  3986    1
  3322  3985  3990    1
  3323  3986  3987    1
  3324  3986  3988    1
  3325  3986  3989    1
  3326  3991  3992    1
  3327  3991  3996    1
  3328  3992  3993    1
  3329  3992  3994    1
  3330  3992  3995    1
  3331  3997  3998    1
  3332  3997  4002    1
  3333  3998  3999    1
  3334  3998  4000    1
  3335  3998  4001    1
  3336  4003  4004    1
  3337  4003  4008    1
  3338  4004  4005    1
  3339  4004  4006    1
  3340  4004  4007    1
  3341  4009  4010    1
  3342  4009  4014    1
  3343  4010  4011    1
  3344  4010  4012    1
  3345  4010  4013    1
  3346  4015  4016    1
  3347  4015  4020    1
  3348  4016  4017    1
  3349  4016  4018    1
  3350  4016  4019    1
  3351  4021  4022    1
  3352  4021  4026    1
  3353  4022  4023    1
  3354  4022  4024    1
  3355  4022  4025    1
  3356  4027  4028    1
  3357  4027  4032    1
  3358  4028  4029    1
  3359  4028  4030    1
  3360  4028  4031    1
  3361  4033  4034    1
  3362  4033  4038    1
  3363  4034  4035    1
  3364  4034  4036    1
  3365  4034  4037    1
  3366  4039  4040    1
  3367  4039  4044    1
  3368  4040  4041    1
  3369  4040  4042    1
  3370  4040  4043    1
  3371  4045  4046    1
  3372  4045  4050    1
  3373  4046  4047    1
  3374  4046  4048    1
  3375  4046  4049    1
  3376  4051  4052    1
  3377  4051  4056    1
  3378  4052  4053    1
  3379  4052  4054    1
  3380  4052  4055    1
  3381  4057  4058    1
  3382  4057  4062    1
  3383  4058  4059    1
  3384  4058  4060    1
  3385  4058  4061    1
  3386  4063  4064    1
  3387  4063  4068    1
  3388  4064  4065    1
  3389  4064  4066    1
  3390  4064  4067    1
  3391  4069  4070    1
  3392  4069  4074    1
  3393  4070  4071    1
  3394  4070  4072    1
  3395  4070  4073    1
  3396  4075  4076    1
  3397  4075  4080    1
  3398  4076  4077    1
  3399  4076  4078    1
  3400  4076  4079    1
  3401  4081  4082    1
  3402  4081  4086    1
  3403  4082  4083    1
  3404  4082  4084    1
  3405  4082  4085    1
  3406  4087  4088    1
  3407  4087  4092    1
  3408  4088  4089    1
  3409  4088  4090    1
  3410  4088  4091    1
  3411  4093  4094    1
  3412  4093  4098    1
  3413  4094  4095    1
  3414  4094  4096    1
  3415  4094  4097    1
  3416  4099  4100    1
  3417  4099  4104    1
  3418  4100  4101    1
  3419  4100  4102    1
  3420  4100  4103    1
  3421  4105  4106    1
  3422  4105  4110    1
  3423  4106  4107    1
  3424  4106  4108    1
  3425  4106  4109    1
  3426  4111  4112    1
  3427  4111  4116    1
  3428  4112  4113    1
  3429  4112  4114    1
  3430  4112  4115    1
  3431  4117  4118    1
  3432  4117  4122    1
  3433  4118  4119    1
  3434  4118  4120    1
  3435  4118  4121    1
  3436  4123  4124    1
  3437  4123  4128    1
  3438  4124  4125    1
  3439  4124  4126    1
  3440  4124  4127    1
  3441  4129  4130    1
  3442  4129  4134    1
  3443  4130  4131    1
  3444  4130  4132    1
  3445  4130  4133    1
  3446  4135  4136    1
  3447  4135  4140    1
  3448  4136  4137    1
  3449  4136  4138    1
  3450  4136  4139    1
  3451  4141  4142    1
  3452  4141  4146    1
  3453  4142  4143    1
  3454  4142  4144    1
  3455  4142  4145    1
  3456  4147  4148    1
  3457  4147  4152    1
  3458  4148  4149    1
  3459  4148  4150    1
  3460  4148  4151    1
  3461  4153  4154    1
  3462  4153  4158    1
  3463  4154  4155    1
  3464  4154  4156    1
  3465  4154  4157    1
  3466  4159  4160    1
  3467  4159  4164    1
  3468  4160  4161    1
  3469  4160  4162    1
  3470  4160  4163    1
  3471  4165  4166    1
  3472  4165  4170    1
  3473  4166  4167    1
  3474  4166  4168    1
  3475  4166  4169    1
  3476  4171  4172    1
  3477  4171  4176    1
  3478  4172  4173    1
  3479  4172  4174    1
  3480  4172  4175    1
  3481  4177  4178    1
  3482  4177  4182    1
  3483  4178  4179    1
  3484  4178  4180    1
  3485  4178  4181    1
  3486  4183  4184    1
  3487  4183  4188    1
  3488  4184  4185    1
  3489  4184  4186    1
  3490  4184  4187    1
  3491  4189  4190    1
  3492  4189  4194    1
  3493  4190  4191    1
  3494  4190  4192    1
  3495  4190  4193    1
  3496  4195  4196    1
  3497  4195  4200    1
  3498  4196  4197    1
  3499  4196  4198    1
  3500  4196  4199    1
  3501  4201  4202    1
  3502  4201  4206    1
  3503  4202  4203    1
  3504  4202  4204    1
  3505  4202  4205    1
  3506  4207  4208    1
  3507  4207  4212    1
  3508  4208  4209    1
  3509  4208  4210    1
  3510  4208  4211    1
  3511  4213  4214    1
  3512  4213  4218    1
  3513  4214  4215    1
  3514  4214  4216    1
  3515  4214  4217    1
  3516  4219  4220    1
  3517  4219  4224    1
  3518  4220  4221    1
  3519  4220  4222    1
  3520  4220  4223    1
  3521  4225  4226    1
  3522  4225  4230    1
  3523  4226  4227    1
  3524  4226  4228    1
  3525  4226  4229    1
  3526  4231  4232    1
  3527  4231  4236    1
  3528  4232  4233    1
  3529  4232  4234    1
  3530  4232  4235    1
  3531  4237  4238    1
  3532  4237  4242    1
  3533  4238  4239    1
  3534  4238  4240    1
  3535  4238  4241    1
  3536  4243  4244    1
  3537  4243  4248    1
  3538  4244  4245    1
  3539  4244  4246    1
  3540  4244  4247    1
  3541  4249  4250    1
  3542  4249  4254    1
  3543  4250  4251    1
  3544  4250  4252    1
  3545  4250  4253    1
  3546  4255  4256    1
  3547  4255  4260    1
  3548  4256  4257    1
  3549  4256  4258    1
  3550  4256  4259    1
  3551  4261  4262    1
  3552  4261  4266    1
  3553  4262  4263    1
  3554  4262  4264    1
  3555  4262  4265    1
  3556  4267  4268    1
  3557  4267  4272    1
  3558  4268  4269    1
  3559  4268  4270    1
  3560  4268  4271    1
  3561  4273  4274    1
  3562  4273  4278    1
  3563  4274  4275    1
  3564  4274  4276    1
  3565  4274  4277    1
  3566  4279  4280    1
  3567  4279  4284    1
  3568  4280  4281    1
  3569  4280  4282    1
  3570  4280  4283    1
  3571  4285  4286    1
  3572  4285  4290    1
  3573  4286  4287    1
  3574  4286  4288    1
  3575  4286  4289    1
  3576  4291  4292    1
  3577  4291  4296    1
  3578  4292  4293    1
  3579  4292  4294    1
  3580  4292  4295    1
  3581  4297  4298    1
  3582  4297  4302    1
  3583  4298  4299    1
  3584  4298  4300    1
  3585  4298  4301    1
  3586  4303  4304    1
  3587  4303  4308    1
  3588  4304  4305    1
  3589  4304  4306    1
  3590  4304  4307    1
  3591  4309  4310    1
  3592  4309  4314    1
  3593  4310  4311    1
  3594  4310  4312    1
  3595  4310  4313    1
  3596  4315  4316    1
  3597  4315  4320    1
  3598  4316  4317    1
  3599  4316  4318    1
  3600  4316  4319    1
  3601  4321  4322    1
  3602  4321  4326    1
  3603  4322  4323    1
  3604  4322  4324    1
  3605  4322  4325    1
  3606  4327  4328    1
  3607  4327  4332    1
  3608  4328  4329    1
  3609  4328  4330    1
  3610  4328  4331    1
  3611  4333  4334    1
  3612  4333  4338    1
  3613  4334  4335    1
  3614  4334  4336    1
  3615  4334  4337    1
  3616  4339  4340    1
  3617  4339  4344    1
  3618  4340  4341    1
  3619  4340  4342    1
  3620  4340  4343    1
  3621  4345  4346    1
  3622  4345  4350    1
  3623  4346  4347    1
  3624  4346  4348    1
  3625  4346  4349    1
  3626  4351  4352    1
  3627  4351  4356    1
  3628  4352  4353    1
  3629  4352  4354    1
  3630  4352  4355    1
  3631  4357  4358    1
  3632  4357  4362    1
  3633  4358  4359    1
  3634  4358  4360    1
  3635  4358  4361    1
  3636  4363  4364    1
  3637  4363  4368    1
  3638  4364  4365    1
  3639  4364  4366    1
  3640  4364  4367    1
  3641  4369  4370    1
  3642  4369  4374    1
  3643  4370  4371    1
  3644  4370  4372    1
  3645  4370  4373    1
  3646  4375  4376    1
  3647  4375  4380    1
  3648  4376  4377    1
  3649  4376  4378    1
  3650  4376  4379    1
  3651  4381  4382    1
  3652  4381  4386    1
  3653  4382  4383    1
  3654  4382  4384    1
  3655  4382  4385    1
  3656  4387  4388    1
  3657  4387  4392    1
  3658  4388  4389    1
  3659  4388  4390    1
  3660  4388  4391    1
  3661  4393  4394    1
  3662  4393  4398    1
  3663  4394  4395    1
  3664  4394  4396    1
  3665  4394  4397    1
  3666  4399  4400    1
  3667  4399  4404    1
  3668  4400  4401    1
  3669  4400  4402    1
  3670  4400  4403    1
  3671  4405  4406    1
  3672  4405  4410    1
  3673  4406  4407    1
  3674  4406  4408    1
  3675  4406  4409    1
  3676  4411  4412    1
  3677  4411  4416    1
  3678  4412  4413    1
  3679  4412  4414    1
  3680  4412  4415    1
  3681  4417  4418    1
  3682  4417  4422    1
  3683  4418  4419    1
  3684  4418  4420    1
  3685  4418  4421    1
  3686  4423  4424    1
  3687  4423  4428    1
  3688  4424  4425    1
  3689  4424  4426    1
  3690  4424  4427    1
  3691  4429  4430    1
  3692  4429  4434    1
  3693  4430  4431    1
  3694  4430  4432    1
  3695  4430  4433    1
  3696  4435  4436    1
  3697  4435  4440    1
  3698  4436  4437    1
  3699  4436  4438    1
  3700  4436  4439    1
  3701  4441  4442    1
  3702  4441  4446    1
  3703  4442  4443    1
  3704  4442  4444    1
  3705  4442  4445    1
  3706  4447  4448    1
  3707  4447  4452    1
  3708  4448  4449    1
  3709  4448  4450    1
  3710  4448  4451    1
  3711  4453  4454    1
  3712  4453  4458    1
  3713  4454  4455    1
  3714  4454  4456    1
  3715  4454  4457    1
  3716  4459  4460    1
  3717  4459  4464    1
  3718  4460  4461    1
  3719  4460  4462    1
  3720  4460  4463    1
  3721  4465  4466    1
  3722  4465  4470    1
  3723  4466  4467    1
  3724  4466  4468    1
  3725  4466  4469    1
  3726  4471  4472    1
  3727  4471  4476    1
  3728  4472  4473    1
  3729  4472  4474    1
  3730  4472  4475    1
  3731  4477  4478    1
  3732  4477  4482    1
  3733  4478  4479    1
  3734  4478  4480    1
  3735  4478  4481    1
  3736  4483  4484    1
  3737  4483  4488    1
  3738  4484  4485    1
  3739  4484  4486    1
  3740  4484  4487    1
  3741  4489  4490    1
  3742  4489  4494    1
  3743  4490  4491    1
  3744  4490  4492    1
  3745  4490  4493    1
  3746  4495  4496    1
  3747  4495  4500    1
  3748  4496  4497    1
  3749  4496  4498    1
  3750  4496  4499    1
  3751  4501  4502    1
  3752  4501  4506    1
  3753  4502  4503    1
  3754  4502  4504    1
  3755  4502  4505    1
  3756  4507  4508    1
  3757  4507  4512    1
  3758  4508  4509    1
  3759  4508  4510    1
  3760  4508  4511    1
  3761  4513  4514    1
  3762  4513  4518    1
  3763  4514  4515    1
  3764  4514  4516    1
  3765  4514  4517    1
  3766  4519  4520    1
  3767  4519  4524    1
  3768  4520  4521    1
  3769  4520  4522    1
  3770  4520  4523    1
  3771  4525  4526    1
  3772  4525  4530    1
  3773  4526  4527    1
  3774  4526  4528    1
  3775  4526  4529    1
  3776  4531  4532    1
  3777  4531  4536    1
  3778  4532  4533    1
  3779  4532  4534    1
  3780  4532  4535    1
  3781  4537  4538    1
  3782  4537  4542    1
  3783  4538  4539    1
  3784  4538  4540    1
  3785  4538  4541    1
  3786  4543  4544    1
  3787  4543  4548    1
  3788  4544  4545    1
  3789  4544  4546    1
  3790  4544  4547    1
  3791  4549  4550    1
  3792  4549  4554    1
  3793  4550  4551    1
  3794  4550  4552    1
  3795  4550  4553    1
  3796  4555  4556    1
  3797  4555  4560    1
  3798  4556  4557    1
  3799  4556  4558    1
  3800  4556  4559    1
  3801  4561  4562    1
  3802  4561  4566    1
  3803  4562  4563    1
  3804  4562  4564    1
  3805  4562  4565    1
  3806  4567  4568    1
  3807  4567  4572    1
  3808  4568  4569    1
  3809  4568  4570    1
  3810  4568  4571    1
  3811  4573  4574    1
  3812  4573  4578    1
  3813  4574  4575    1
  3814  4574  4576    1
  3815  4574  4577    1
  3816  4579  4580    1
  3817  4579  4584    1
  3818  4580  4581    1
  3819  4580  4582    1
  3820  4580  4583    1
  3821  4585  4586    1
  3822  4585  4590    1
  3823  4586  4587    1
  3824  4586  4588    1
  3825  4586  4589    1
  3826  4591  4592    1
  3827  4591  4596    1
  3828  4592  4593    1
  3829  4592  4594    1
  3830  4592  4595    1
  3831  4597  4598    1
  3832  4597  4602    1
  3833  4598  4599    1
  3834  4598  4600    1
  3835  4598  4601    1
  3836  4603  4604    1
  3837  4603  4608    1
  3838  4604  4605    1
  3839  4604  4606    1
  3840  4604  4607    1
  3841  4609  4610    1
  3842  4609  4614    1
  3843  4610  4611    1
  3844  4610  4612    1
  3845  4610  4613    1
  3846  4615  4616    1
  3847  4615  4620    1
  3848  4616  4617    1
  3849  4616  4618    1
  3850  4616  4619    1
  3851  4621  4622    1
  3852  4621  4626    1
  3853  4622  4623    1
  3854  4622  4624    1
  3855  4622  4625    1
  3856  4627  4628    1
  3857  4627  4632    1
  3858  4628  4629    1
  3859  4628  4630    1
  3860  4628  4631    1
  3861  4633  4634    1
  3862  4633  4638    1
  3863  4634  4635    1
  3864  4634  4636    1
  3865  4634  4637    1
  3866  4639  4640    1
  3867  4639  4644    1
  3868  4640  4641    1
  3869  4640  4642    1
  3870  4640  4643    1
  3871  4645  4646    1
  3872  4645  4650    1
  3873  4646  4647    1
  3874  4646  4648    1
  3875  4646  4649    1
  3876  4651  4652    1
  3877  4651  4656    1
  3878  4652  4653    1
  3879  4652  4654    1
  3880  4652  4655    1
  3881  4657  4658    1
  3882  4657  4662    1
  3883  4658  4659    1
  3884  4658  4660    1
  3885  4658  4661    1
  3886  4663  4664    1
  3887  4663  4668    1
  3888  4664  4665    1
  3889  4664  4666    1
  3890  4664  4667    1
  3891  4669  4670    1
  3892  4669  4674    1
  3893  4670  4671    1
  3894  4670  4672    1
  3895  4670  4673    1
  3896  4675  4676    1
  3897  4675  4680    1
  3898  4676  4677    1
  3899  4676  4678    1
  3900  4676  4679    1
  3901  4681  4682    1
  3902  4681  4686    1
  3903  4682  4683    1
  3904  4682  4684    1
  3905  4682  4685    1
  3906  4687  4688    1
  3907  4687  4692    1
  3908  4688  4689    1
  3909  4688  4690    1
  3910  4688  4691    1
  3911  4693  4694    1
  3912  4693  4698    1
  3913  4694  4695    1
  3914  4694  4696    1
  3915  4694  4697    1
  3916  4699  4700    1
  3917  4699  4704    1
  3918  4700  4701    1
  3919  4700  4702    1
  3920  4700  4703    1
  3921  4705  4706    1
  3922  4705  4710    1
  3923  4706  4707    1
  3924  4706  4708    1
  3925  4706  4709    1
  3926  4711  4712    1
  3927  4711  4716    1
  3928  4712  4713    1
  3929  4712  4714    1
  3930  4712  4715    1
  3931  4717  4718    1
  3932  4717  4722    1
  3933  4718  4719    1
  3934  4718  4720    1
  3935  4718  4721    1
  3936  4723  4724    1
  3937  4723  4728    1
  3938  4724  4725    1
  3939  4724  4726    1
  3940  4724  4727    1
  3941  4729  4730    1
  3942  4729  4734    1
  3943  4730  4731    1
  3944  4730  4732    1
  3945  4730  4733    1
  3946  4735  4736    1
  3947  4735  4740    1
  3948  4736  4737    1
  3949  4736  4738    1
  3950  4736  4739    1
  3951  4741  4742    1
  3952  4741  4746    1
  3953  4742  4743    1
  3954  4742  4744    1
  3955  4742  4745    1
  3956  4747  4748    1
  3957  4747  4752    1
  3958  4748  4749    1
  3959  4748  4750    1
  3960  4748  4751    1
  3961  4753  4754    1
  3962  4753  4758    1
  3963  4754  4755    1
  3964  4754  4756    1
  3965  4754  4757    1
  3966  4759  4760    1
  3967  4759  4764    1
  3968  4760  4761    1
  3969  4760  4762    1
  3970  4760  4763    1
  3971  4765  4766    1
  3972  4765  4770    1
  3973  4766  4767    1
  3974  4766  4768    1
  3975  4766  4769    1
  3976  4771  4772    1
  3977  4771  4776    1
  3978  4772  4773    1
  3979  4772  4774    1
  3980  4772  4775    1
  3981  4777  4778    1
  3982  4777  4782    1
  3983  4778  4779    1
  3984  4778  4780    1
  3985  4778  4781    1
  3986  4783  4784    1
  3987  4783  4788    1
  3988  4784  4785    1
  3989  4784  4786    1
  3990  4784  4787    1
  3991  4789  4790    1
  3992  4789  4794    1
  3993  4790  4791    1
  3994  4790  4792    1
  3995  4790  4793    1
  3996  4795  4796    1
  3997  4795  4800    1
  3998  4796  4797    1
  3999  4796  4798    1
  4000  4796  4799    1
  4001  4801  4802    1
  4002  4801  4806    1
  4003  4802  4803    1
  4004  4802  4804    1
  4005  4802  4805    1
  4006  4807  4808    1
  4007  4807  4812    1
  4008  4808  4809    1
  4009  4808  4810    1
  4010  4808  4811    1
  4011  4813  4814    1
  4012  4813  4818    1
  4013  4814  4815    1
  4014  4814  4816    1
  4015  4814  4817    1
  4016  4819  4820    1
  4017  4819  4824    1
  4018  4820  4821    1
  4019  4820  4822    1
  4020  4820  4823    1
  4021  4825  4826    1
  4022  4825  4830    1
  4023  4826  4827    1
  4024  4826  4828    1
  4025  4826  4829    1
  4026  4831  4832    1
  4027  4831  4836    1
  4028  4832  4833    1
  4029  4832  4834    1
  4030  4832  4835    1
  4031  4837  4838    1
  4032  4837  4842    1
  4033  4838  4839    1
  4034  4838  4840    1
  4035  4838  4841    1
  4036  4843  4844    1
  4037  4843  4848    1
  4038  4844  4845    1
  4039  4844  4846    1
  4040  4844  4847    1
  4041  4849  4850    1
  4042  4849  4854    1
  4043  4850  4851    1
  4044  4850  4852    1
  4045  4850  4853    1
  4046  4855  4856    1
  4047  4855  4860    1
  4048  4856  4857    1
  4049  4856  4858    1
  4050  4856  4859    1
  4051  4861  4862    1
  4052  4861  4866    1
  4053  4862  4863    1
  4054  4862  4864    1
  4055  4862  4865    1
  4056  4867  4868    1
  4057  4867  4872    1
  4058  4868  4869    1
  4059  4868  4870    1
  4060  4868  4871    1
  4061  4873  4874    1
  4062  4873  4878    1
  4063  4874  4875    1
  4064  4874  4876    1
  4065  4874  4877    1
  4066  4879  4880    1
  4067  4879  4884    1
  4068  4880  4881    1
  4069  4880  4882    1
  4070  4880  4883    1
  4071  4885  4886    1
  4072  4885  4890    1
  4073  4886  4887    1
  4074  4886  4888    1
  4075  4886  4889    1
  4076  4891  4892    1
  4077  4891  4896    1
  4078  4892  4893    1
  4079  4892  4894    1
  4080  4892  4895    1
  4081  4897  4898    1
  4082  4897  4902    1
  4083  4898  4899    1
  4084  4898  4900    1
  4085  4898  4901    1
  4086  4903  4904    1
  4087  4903  4908    1
  4088  4904  4905    1
  4089  4904  4906    1
  4090  4904  4907    1
  4091  4909  4910    1
  4092  4909  4914    1
  4093  4910  4911    1
  4094  4910  4912    1
  4095  4910  4913    1
  4096  4915  4916    1
  4097  4915  4920    1
  4098  4916  4917    1
  4099  4916  4918    1
  4100  4916  4919    1
  4101  4921  4922    1
  4102  4921  4926    1
  4103  4922  4923    1
  4104  4922  4924    1
  4105  4922  4925    1
  4106  4927  4928    1
  4107  4927  4932    1
  4108  4928  4929    1
  4109  4928  4930    1
  4110  4928  4931    1
  4111  4933  4934    1
  4112  4933  4938    1
  4113  4934  4935    1
  4114  4934  4936    1
  4115  4934  4937    1
  4116  4939  4940    1
  4117  4939  4944    1
  4118  4940  4941    1
  4119  4940  4942    1
  4120  4940  4943    1
  4121  4945  4946    1
  4122  4945  4950    1
  4123  4946  4947    1
  4124  4946  4948    1
  4125  4946  4949    1
  4126  4951  4952    1
  4127  4951  4956    1
  4128  4952  4953    1
  4129  4952  4954    1
  4130  4952  4955    1
  4131  4957  4958    1
  4132  4957  4962    1
  4133  4958  4959    1
  4134  4958  4960    1
  4135  4958  4961    1
  4136  4963  4964    1
  4137  4963  4968    1
  4138  4964  4965    1
  4139  4964  4966    1
  4140  4964  4967    1
  4141  4969  4970    1
  4142  4969  4974    1
  4143  4970  4971    1
  4144  4970  4972    1
  4145  4970  4973    1
  4146  4975  4976    1
  4147  4975  4980    1
  4148  4976  4977    1
  4149  4976  4978    1
  4150  4976  4979    1
  4151  4981  4982    1
  4152  4981  4986    1
  4153  4982  4983    1
  4154  4982  4984    1
  4155  4982  4985    1
  4156  4987  4988    1
  4157  4987  4992    1
  4158  4988  4989    1
  4159  4988  4990    1
  4160  4988  4991    1
  4161  4993  4994    1
  4162  4993  4998    1
  4163  4994  4995    1
  4164  4994  4996    1
  4165  4994  4997    1
  4166  4999  5000    1
  4167  4999  5004    1
  4168  5000  5001    1
  4169  5000  5002    1
  4170  5000  5003    1
  4171  5005  5006    1
  4172  5005  5010    1
  4173  5006  5007    1
  4174  5006  5008    1
  4175  5006  5009    1
  4176  5011  5012    1
  4177  5011  5016    1
  4178  5012  5013    1
  4179  5012  5014    1
  4180  5012  5015    1
  4181  5017  5018    1
  4182  5017  5022    1
  4183  5018  5019    1
  4184  5018  5020    1
  4185  5018  5021    1
  4186  5023  5024    1
  4187  5023  5028    1
  4188  5024  5025    1
  4189  5024  5026    1
  4190  5024  5027    1
  4191  5029  5030    1
  4192  5029  5034    1
  4193  5030  5031    1
  4194  5030  5032    1
  4195  5030  5033    1
  4196  5035  5036    1
  4197  5035  5040    1
  4198  5036  5037    1
  4199  5036  5038    1
  4200  5036  5039    1
  4201  5041  5042    1
  4202  5041  5046    1
  4203  5042  5043    1
  4204  5042  5044    1
  4205  5042  5045    1
  4206  5047  5048    1
  4207  5047  5052    1
  4208  5048  5049    1
  4209  5048  5050    1
  4210  5048  5051    1
  4211  5053  5054    1
  4212  5053  5058    1
  4213  5054  5055    1
  4214  5054  5056    1
  4215  5054  5057    1
  4216  5059  5060    1
  4217  5059  5064    1
  4218  5060  5061    1
  4219  5060  5062    1
  4220  5060  5063    1
  4221  5065  5066    1
  4222  5065  5070    1
  4223  5066  5067    1
  4224  5066  5068    1
  4225  5066  5069    1
  4226  5071  5072    1
  4227  5071  5076    1
  4228  5072  5073    1
  4229  5072  5074    1
  4230  5072  5075    1
  4231  5077  5078    1
  4232  5077  5082    1
  4233  5078  5079    1
  4234  5078  5080    1
  4235  5078  5081    1
  4236  5083  5084    1
  4237  5083  5088    1
  4238  5084  5085    1
  4239  5084  5086    1
  4240  5084  5087    1
  4241  5089  5090    1
  4242  5089  5094    1
  4243  5090  5091    1
  4244  5090  5092    1
  4245  5090  5093    1
  4246  5095  5096    1
  4247  5095  5100    1
  4248  5096  5097    1
  4249  5096  5098    1
  4250  5096  5099    1
  4251  5101  5102    1
  4252  5101  5106    1
  4253  5102  5103    1
  4254  5102  5104    1
  4255  5102  5105    1
  4256  5107  5108    1
  4257  5107  5112    1
  4258  5108  5109    1
  4259  5108  5110    1
  4260  5108  5111    1
  4261  5113  5114    1
  4262  5113  5118    1
  4263  5114  5115    1
  4264  5114  5116    1
  4265  5114  5117    1
  4266  5119  5120    1
  4267  5119  5124    1
  4268  5120  5121    1
  4269  5120  5122    1
  4270  5120  5123    1
  4271  5125  5126    1
  4272  5125  5130    1
  4273  5126  5127    1
  4274  5126  5128    1
  4275  5126  5129    1
  4276  5131  5132    1
  4277  5131  5136    1
  4278  5132  5133    1
  4279  5132  5134    1
  4280  5132  5135    1
  4281  5137  5138    1
  4282  5137  5142    1
  4283  5138  5139    1
  4284  5138  5140    1
  4285  5138  5141    1
  4286  5143  5144    1
  4287  5143  5148    1
  4288  5144  5145    1
  4289  5144  5146    1
  4290  5144  5147    1
  4291  5149  5150    1
  4292  5149  5154    1
  4293  5150  5151    1
  4294  5150  5152    1
  4295  5150  5153    1
  4296  5155  5156    1
  4297  5155  5160    1
  4298  5156  5157    1
  4299  5156  5158    1
  4300  5156  5159    1
  4301  5161  5162    1
  4302  5161  5166    1
  4303  5162  5163    1
  4304  5162  5164    1
  4305  5162  5165    1
  4306  5167  5168    1
  4307  5167  5172    1
  4308  5168  5169    1
  4309  5168  5170    1
  4310  5168  5171    1
  4311  5173  5174    1
  4312  5173  5178    1
  4313  5174  5175    1
  4314  5174  5176    1
  4315  5174  5177    1
  4316  5179  5180    1
  4317  5179  5184    1
  4318  5180  5181    1
  4319  5180  5182    1
  4320  5180  5183    1
  4321  5185  5186    1
  4322  5185  5190    1
  4323  5186  5187    1
  4324  5186  5188    1
  4325  5186  5189    1
  4326  5191  5192    1
  4327  5191  5196    1
  4328  5192  5193    1
  4329  5192  5194    1
  4330  5192  5195    1
  4331  5197  5198    1
  4332  5197  5202    1
  4333  5198  5199    1
  4334  5198  5200    1
  4335  5198  5201    1
  4336  5203  5204    1
  4337  5203  5208    1
  4338  5204  5205    1
  4339  5204  5206    1
  4340  5204  5207    1
  4341  5209  5210    1
  4342  5209  5214    1
  4343  5210  5211    1
  4344  5210  5212    1
  4345  5210  5213    1
  4346  5215  5216    1
  4347  5215  5220    1
  4348  5216  5217    1
  4349  5216  5218    1
  4350  5216  5219    1
  4351  5221  5222    1
  4352  5221  5226    1
  4353  5222  5223    1
  4354  5222  5224    1
  4355  5222  5225    1
  4356  5227  5228    1
  4357  5227  5232    1
  4358  5228  5229    1
  4359  5228  5230    1
  4360  5228  5231    1
  4361  5233  5234    1
  4362  5233  5238    1
  4363  5234  5235    1
  4364  5234  5236    1
  4365  5234  5237    1
  4366  5239  5240    1
  4367  5239  5244    1
  4368  5240  5241    1
  4369  5240  5242    1
  4370  5240  5243    1
  4371  5245  5246    1
  4372  5245  5250    1
  4373  5246  5247    1
  4374  5246  5248    1
  4375  5246  5249    1
  4376  5251  5252    1
  4377  5251  5256    1
  4378  5252  5253    1
  4379  5252  5254    1
  4380  5252  5255    1
  4381  5257  5258    1
  4382  5257  5262    1
  4383  5258  5259    1
  4384  5258  5260    1
  4385  5258  5261    1
  4386  5263  5264    1
  4387  5263  5268    1
  4388  5264  5265    1
  4389  5264  5266    1
  4390  5264  5267    1
  4391  5269  5270    1
  4392  5269  5274    1
  4393  5270  5271    1
  4394  5270  5272    1
  4395  5270  5273    1
  4396  5275  5276    1
  4397  5275  5280    1
  4398  5276  5277    1
  4399  5276  5278    1
  4400  5276  5279    1
  4401  5281  5282    1
  4402  5281  5286    1
  4403  5282  5283    1
  4404  5282  5284    1
  4405  5282  5285    1
  4406  5287  5288    1
  4407  5287  5292    1
  4408  5288  5289    1
  4409  5288  5290    1
  4410  5288  5291    1
  4411  5293  5294    1
  4412  5293  5298    1
  4413  5294  5295    1
  4414  5294  5296    1
  4415  5294  5297    1
  4416  5299  5300    1
  4417  5299  5304    1
  4418  5300  5301    1
  4419  5300  5302    1
  4420  5300  5303    1
  4421  5305  5306    1
  4422  5305  5310    1
  4423  5306  5307    1
  4424  5306  5308    1
  4425  5306  5309    1
  4426  5311  5312    1
  4427  5311  5316    1
  4428  5312  5313    1
  4429  5312  5314    1
  4430  5312  5315    1
  4431  5317  5318    1
  4432  5317  5322    1
  4433  5318  5319    1
  4434  5318  5320    1
  4435  5318  5321    1
  4436  5323  5324    1
  4437  5323  5328    1
  4438  5324  5325    1
  4439  5324  5326    1
  4440  5324  5327    1
  4441  5329  5330    1
  4442  5329  5334    1
  4443  5330  5331    1
  4444  5330  5332    1
  4445  5330  5333    1
  4446  5335  5336    1
  4447  5335  5340    1
  4448  5336  5337    1
  4449  5336  5338    1
  4450  5336  5339    1
  4451  5341  5342    1
  4452  5341  5346    1
  4453  5342  5343    1
  4454  5342  5344    1
  4455  5342  5345    1
  4456  5347  5348    1
  4457  5347  5352    1
  4458  5348  5349    1
  4459  5348  5350    1
  4460  5348  5351    1
  4461  5353  5354    1
  4462  5353  5358    1
  4463  5354  5355    1
  4464  5354  5356    1
  4465  5354  5357    1
  4466  5359  5360    1
  4467  5359  5364    1
  4468  5360  5361    1
  4469  5360  5362    1
  4470  5360  5363    1
  4471  5365  5366    1
  4472  5365  5370    1
  4473  5366  5367    1
  4474  5366  5368    1
  4475  5366  5369    1
  4476  5371  5372    1
  4477  5371  5376    1
  4478  5372  5373    1
  4479  5372  5374    1
  4480  5372  5375    1
  4481  5377  5378    1
  4482  5377  5382    1
  4483  5378  5379    1
  4484  5378  5380    1
  4485  5378  5381    1
  4486  5383  5384    1
  4487  5383  5388    1
  4488  5384  5385    1
  4489  5384  5386    1
  4490  5384  5387    1
  4491  5389  5390    1
  4492  5389  5394    1
  4493  5390  5391    1
  4494  5390  5392    1
  4495  5390  5393    1
  4496  5395  5396    1
  4497  5395  5400    1
  4498  5396  5397    1
  4499  5396  5398    1
  4500  5396  5399    1
  4501  5401  5402    1
  4502  5401  5406    1
  4503  5402  5403    1
  4504  5402  5404    1
  4505  5402  5405    1
  4506  5407  5408    1
  4507  5407  5412    1
  4508  5408  5409    1
  4509  5408  5410    1
  4510  5408  5411    1
  4511  5413  5414    1
  4512  5413  5418    1
  4513  5414  5415    1
  4514  5414  5416    1
  4515  5414  5417    1
  4516  5419  5420    1
  4517  5419  5424    1
  4518  5420  5421    1
  4519  5420  5422    1
  4520  5420  5423    1
  4521  5425  5426    1
  4522  5425  5430    1
  4523  5426  5427    1
  4524  5426  5428    1
  4525  5426  5429    1
  4526  5431  5432    1
  4527  5431  5436    1
  4528  5432  5433    1
  4529  5432  5434    1
  4530  5432  5435    1
  4531  5437  5438    1
  4532  5437  5442    1
  4533  5438  5439    1
  4534  5438  5440    1
  4535  5438  5441    1
  4536  5443  5444    1
  4537  5443  5448    1
  4538  5444  5445    1
  4539  5444  5446    1
  4540  5444  5447    1
  4541  5449  5450    1
  4542  5449  5454    1
  4543  5450  5451    1
  4544  5450  5452    1
  4545  5450  5453    1
