@<TRIPOS>MOLECULE
*****
 492 410 0 0 0
SMALL
GASTEIGER

@<TRIPOS>ATOM
      1 O          -0.8652    4.6529   11.0933 O.3     1  UNL1       -0.3982
      2 C          -1.0739    4.5111    9.7001 C.3     1  UNL1        0.0330
      3 H          -1.4551    3.5091    9.4880 H       1  UNL1        0.0521
      4 H          -0.1316    4.6736    9.1713 H       1  UNL1        0.0521
      5 H          -1.8054    5.2537    9.3730 H       1  UNL1        0.0521
      6 H          -0.2121    3.9815   11.3541 H       1  UNL1        0.2090
      7 O          -0.1476    0.9810    0.8354 O.3     2  UNL2       -0.3982
      8 C           1.2411    1.0553    0.5702 C.3     2  UNL2        0.0330
      9 H           1.7762    1.3018    1.4907 H       2  UNL2        0.0521
     10 H           1.4277    1.8197   -0.1881 H       2  UNL2        0.0521
     11 H           1.5845    0.0865    0.1999 H       2  UNL2        0.0521
     12 H          -0.4232    1.8544    1.1621 H       2  UNL2        0.2090
     13 O           1.9396    1.3206    4.2433 O.3     3  UNL3       -0.3982
     14 C           0.5498    1.1823    4.0114 C.3     3  UNL3        0.0330
     15 H           0.3365    0.1680    3.6648 H       3  UNL3        0.0521
     16 H           0.2305    1.9098    3.2612 H       3  UNL3        0.0521
     17 H           0.0137    1.3661    4.9454 H       3  UNL3        0.0521
     18 H           2.3886    1.1519    3.3974 H       3  UNL3        0.2090
     19 O           2.9972    1.0854    7.2218 O.3     4  UNL4       -0.3982
     20 C           1.7442    0.4669    6.9941 C.3     4  UNL4        0.0330
     21 H           1.8042   -0.1627    6.1029 H       4  UNL4        0.0521
     22 H           0.9773    1.2337    6.8606 H       4  UNL4        0.0521
     23 H           1.4911   -0.1518    7.8583 H       4  UNL4        0.0521
     24 H           3.1948    1.6272    6.4389 H       4  UNL4        0.2090
     25 O           0.9691    1.3022    9.6337 O.3     5  UNL5       -0.3982
     26 C           0.8653    0.7659   10.9399 C.3     5  UNL5        0.0330
     27 H           1.0492    1.5543   11.6740 H       5  UNL5        0.0521
     28 H           1.5942   -0.0388   11.0632 H       5  UNL5        0.0521
     29 H          -0.1419    0.3671   11.0813 H       5  UNL5        0.0521
     30 H           1.8728    1.6481    9.5378 H       5  UNL5        0.2090
     31 O           0.9595    0.9608   13.9649 O.3     6  UNL6       -0.3982
     32 C          -0.4450    0.7839   13.9397 C.3     6  UNL6        0.0330
     33 H          -0.7235   -0.0251   14.6196 H       6  UNL6        0.0521
     34 H          -0.7649    0.5457   12.9224 H       6  UNL6        0.0521
     35 H          -0.9256    1.7102   14.2629 H       6  UNL6        0.0521
     36 H           1.3582    0.1232   13.6735 H       6  UNL6        0.2090
     37 O           2.3194   -0.5617   17.2370 O.3     7  UNL7       -0.3982
     38 C           2.0228    0.0994   16.0206 C.3     7  UNL7        0.0330
     39 H           2.5534    1.0542   15.9850 H       7  UNL7        0.0521
     40 H           0.9453    0.2662   15.9489 H       7  UNL7        0.0521
     41 H           2.3486   -0.5272   15.1871 H       7  UNL7        0.0521
     42 H           2.0192    0.0179   17.9577 H       7  UNL7        0.2090
     43 O           1.4939    5.3295    0.5296 O.3     8  UNL8       -0.3982
     44 C           0.6307    4.6479    1.4210 C.3     8  UNL8        0.0330
     45 H           1.2175    4.1991    2.2264 H       8  UNL8        0.0521
     46 H           0.0838    3.8727    0.8788 H       8  UNL8        0.0521
     47 H          -0.0788    5.3625    1.8447 H       8  UNL8        0.0521
     48 H           2.1115    4.6703    0.1698 H       8  UNL8        0.2090
     49 O           0.9952    4.6578    4.3655 O.3     9  UNL9       -0.3982
     50 C          -0.3934    4.6083    4.0937 C.3     9  UNL9        0.0330
     51 H          -0.8085    5.6186    4.1275 H       9  UNL9        0.0521
     52 H          -0.8880    3.9747    4.8340 H       9  UNL9        0.0521
     53 H          -0.5456    4.1873    3.0971 H       9  UNL9        0.0521
     54 H           1.0988    5.0353    5.2556 H       9  UNL9        0.2090
     55 O           0.0440    3.6202    7.2084 O.3    10  UNL10      -0.3982
     56 C          -0.1219    5.0246    7.2775 C.3    10  UNL10       0.0330
     57 H           0.6966    5.4611    7.8553 H      10  UNL10       0.0521
     58 H          -1.0796    5.2564    7.7497 H      10  UNL10       0.0521
     59 H          -0.1089    5.4341    6.2647 H      10  UNL10       0.0521
     60 H           0.0284    3.2855    8.1212 H      10  UNL10       0.2090
     61 O           3.0524    4.2943   10.4566 O.3    11  UNL11      -0.3982
     62 C           1.6811    4.1652   10.1287 C.3    11  UNL11       0.0330
     63 H           1.2495    3.3298   10.6855 H      11  UNL11       0.0521
     64 H           1.5770    3.9937    9.0546 H      11  UNL11       0.0521
     65 H           1.1626    5.0878   10.4000 H      11  UNL11       0.0521
     66 H           3.4860    3.4612   10.2046 H      11  UNL11       0.2090
     67 O           0.1804    3.8115   13.6945 O.3    12  UNL12      -0.3982
     68 C           1.3574    4.4020   13.1743 C.3    12  UNL12       0.0330
     69 H           2.0089    3.6232   12.7702 H      12  UNL12       0.0521
     70 H           1.8734    4.9481   13.9678 H      12  UNL12       0.0521
     71 H           1.0839    5.0957   12.3759 H      12  UNL12       0.0521
     72 H           0.4546    3.2015   14.4003 H      12  UNL12       0.2090
     73 O           0.6366    7.6602    1.9425 O.3    13  UNL13      -0.3982
     74 C          -0.1557    8.0863    0.8492 C.3    13  UNL13       0.0330
     75 H          -0.9128    8.7921    1.1999 H      13  UNL13       0.0521
     76 H          -0.6358    7.2204    0.3868 H      13  UNL13       0.0521
     77 H           0.4866    8.5789    0.1156 H      13  UNL13       0.0521
     78 H           0.0397    7.2272    2.5763 H      13  UNL13       0.2090
     79 O           1.2072    8.0063    4.3540 O.3    14  UNL14      -0.3982
     80 C           2.3995    7.2499    4.2504 C.3    14  UNL14       0.0330
     81 H           2.3219    6.5594    3.4068 H      14  UNL14       0.0521
     82 H           2.5607    6.6934    5.1768 H      14  UNL14       0.0521
     83 H           3.2385    7.9300    4.0857 H      14  UNL14       0.0521
     84 H           0.4809    7.3763    4.4997 H      14  UNL14       0.2090
     85 O           0.3562    7.8296    6.6755 O.3    15  UNL15      -0.3982
     86 C          -0.0643    8.0645    8.0068 C.3    15  UNL15       0.0330
     87 H          -0.1733    7.1108    8.5292 H      15  UNL15       0.0521
     88 H          -1.0171    8.5994    7.9999 H      15  UNL15       0.0521
     89 H           0.6882    8.6719    8.5152 H      15  UNL15       0.0521
     90 H          -0.3310    7.2889    6.2501 H      15  UNL15       0.2090
     91 O           2.6022    7.1541   11.1670 O.3    16  UNL16      -0.3982
     92 C           1.9951    7.6575    9.9912 C.3    16  UNL16       0.0330
     93 H           0.9666    7.9554   10.2100 H      16  UNL16       0.0521
     94 H           2.0056    6.8873    9.2163 H      16  UNL16       0.0521
     95 H           2.5582    8.5273    9.6450 H      16  UNL16       0.0521
     96 H           2.0810    6.3836   11.4503 H      16  UNL16       0.2090
     97 O          -0.3958    8.2030   14.0936 O.3    17  UNL17      -0.3982
     98 C           0.0177    6.9244   13.6480 C.3    17  UNL17       0.0330
     99 H          -0.7607    6.1904   13.8712 H      17  UNL17       0.0521
    100 H           0.9490    6.6470   14.1476 H      17  UNL17       0.0521
    101 H           0.1826    6.9605   12.5686 H      17  UNL17       0.0521
    102 H          -0.5342    8.1399   15.0540 H      17  UNL17       0.2090
    103 O           2.9978    5.3541   17.4292 O.3    18  UNL18      -0.3982
    104 C           1.8069    5.6621   16.7281 C.3    18  UNL18       0.0330
    105 H           1.4543    4.7733   16.1989 H      18  UNL18       0.0521
    106 H           1.9998    6.4697   16.0177 H      18  UNL18       0.0521
    107 H           1.0463    5.9832   17.4436 H      18  UNL18       0.0521
    108 H           3.6535    5.0727   16.7687 H      18  UNL18       0.2090
    109 O           1.8496   10.4846    0.8122 O.3    19  UNL19      -0.3982
    110 C           0.5179   10.9048    1.0453 C.3    19  UNL19       0.0330
    111 H           0.0206   10.1919    1.7078 H      19  UNL19       0.0521
    112 H          -0.0166   10.9688    0.0944 H      19  UNL19       0.0521
    113 H           0.5336   11.8891    1.5190 H      19  UNL19       0.0521
    114 H           1.8036    9.6091    0.3916 H      19  UNL19       0.2090
    115 O           1.7945   10.5854    3.6373 O.3    20  UNL20      -0.3982
    116 C           0.9003   11.4382    4.3283 C.3    20  UNL20       0.0330
    117 H           1.4624   12.0826    5.0088 H      20  UNL20       0.0521
    118 H           0.1818   10.8362    4.8898 H      20  UNL20       0.0521
    119 H           0.3662   12.0561    3.6026 H      20  UNL20       0.0521
    120 H           2.2535   10.0499    4.3067 H      20  UNL20       0.2090
    121 O           2.6388   10.2354    7.8477 O.3    21  UNL21      -0.3982
    122 C           1.4252   10.6701    7.2624 C.3    21  UNL21       0.0330
    123 H           0.6012   10.4974    7.9593 H      21  UNL21       0.0521
    124 H           1.2512   10.1225    6.3330 H      21  UNL21       0.0521
    125 H           1.4981   11.7383    7.0452 H      21  UNL21       0.0521
    126 H           2.5442    9.2847    8.0290 H      21  UNL21       0.2090
    127 O           0.5657   11.7621   10.4183 O.3    22  UNL22      -0.3982
    128 C           0.6629   10.3588   10.2580 C.3    22  UNL22       0.0330
    129 H          -0.3088    9.9570    9.9602 H      22  UNL22       0.0521
    130 H           0.9840    9.9051   11.1988 H      22  UNL22       0.0521
    131 H           1.3989   10.1401    9.4808 H      22  UNL22       0.0521
    132 H          -0.0941   11.9252   11.1137 H      22  UNL22       0.2090
    133 O           0.3635   10.3909   12.9500 O.3    23  UNL23      -0.3982
    134 C          -0.0469   10.7314   14.2615 C.3    23  UNL23       0.0330
    135 H          -0.8319   10.0450   14.5884 H      23  UNL23       0.0521
    136 H          -0.4187   11.7589   14.2726 H      23  UNL23       0.0521
    137 H           0.8097   10.6490   14.9346 H      23  UNL23       0.0521
    138 H          -0.4169   10.4732   12.3759 H      23  UNL23       0.2090
    139 O           2.3285   15.4866    1.1399 O.3    24  UNL24      -0.3982
    140 C           2.4034   14.0811    0.9870 C.3    24  UNL24       0.0330
    141 H           2.7502   13.6300    1.9200 H      24  UNL24       0.0521
    142 H           3.0924   13.8384    0.1743 H      24  UNL24       0.0521
    143 H           1.4096   13.6964    0.7462 H      24  UNL24       0.0521
    144 H           3.2244   15.7990    1.3528 H      24  UNL24       0.2090
    145 O           2.3485   14.3019    3.9833 O.3    25  UNL25      -0.3982
    146 C           0.9559   14.3310    3.7295 C.3    25  UNL25       0.0330
    147 H           0.4230   13.8660    4.5625 H      25  UNL25       0.0521
    148 H           0.7425   13.7948    2.8016 H      25  UNL25       0.0521
    149 H           0.6348   15.3705    3.6291 H      25  UNL25       0.0521
    150 H           2.6040   13.3674    4.0674 H      25  UNL25       0.2090
    151 O          -0.0278   13.9166    7.6461 O.3    26  UNL26      -0.3982
    152 C           1.3478   14.1187    7.3791 C.3    26  UNL26       0.0330
    153 H           1.5661   13.8295    6.3480 H      26  UNL26       0.0521
    154 H           1.9458   13.5206    8.0709 H      26  UNL26       0.0521
    155 H           1.5848   15.1763    7.5165 H      26  UNL26       0.0521
    156 H          -0.2081   12.9700    7.5161 H      26  UNL26       0.2090
    157 O           0.9788   14.1563   10.2034 O.3    27  UNL27      -0.3982
    158 C          -0.4289   14.0514   10.3124 C.3    27  UNL27       0.0330
    159 H          -0.8801   15.0379   10.1797 H      27  UNL27       0.0521
    160 H          -0.6903   13.6484   11.2939 H      27  UNL27       0.0521
    161 H          -0.7962   13.3776    9.5348 H      27  UNL27       0.0521
    162 H           1.2755   14.7599   10.9057 H      27  UNL27       0.2090
    163 O          -0.4322   14.2138   14.8878 O.3    28  UNL28      -0.3982
    164 C          -0.0666   14.0050   13.5361 C.3    28  UNL28       0.0330
    165 H          -0.5385   13.0910   13.1671 H      28  UNL28       0.0521
    166 H           1.0203   13.9228   13.4603 H      28  UNL28       0.0521
    167 H          -0.4080   14.8548   12.9404 H      28  UNL28       0.0521
    168 H          -0.1163   13.4443   15.3914 H      28  UNL28       0.2090
    169 O           1.1564   17.5354    4.6769 O.3    29  UNL29      -0.3982
    170 C           2.3780   17.2828    4.0072 C.3    29  UNL29       0.0330
    171 H           2.8614   18.2310    3.7591 H      29  UNL29       0.0521
    172 H           2.1836   16.7114    3.0963 H      29  UNL29       0.0521
    173 H           3.0309   16.7046    4.6651 H      29  UNL29       0.0521
    174 H           0.5983   18.0496    4.0689 H      29  UNL29       0.2090
    175 O           0.1368   18.1711   14.2551 O.3    30  UNL30      -0.3982
    176 C          -0.2548   16.9572   13.6406 C.3    30  UNL30       0.0330
    177 H          -0.8717   16.3794   14.3334 H      30  UNL30       0.0521
    178 H           0.6338   16.3850   13.3631 H      30  UNL30       0.0521
    179 H          -0.8343   17.1844   12.7427 H      30  UNL30       0.0521
    180 H           0.6488   17.9376   15.0482 H      30  UNL30       0.2090
    181 O           5.4045    0.0809    0.7366 O.3    31  UNL31      -0.3982
    182 C           4.5251    1.1417    1.0619 C.3    31  UNL31       0.0330
    183 H           3.7695    0.7867    1.7671 H      31  UNL31       0.0521
    184 H           4.0452    1.5103    0.1521 H      31  UNL31       0.0521
    185 H           5.0984    1.9501    1.5219 H      31  UNL31       0.0521
    186 H           4.8677   -0.6209    0.3306 H      31  UNL31       0.2090
    187 O           6.0290    1.9081    4.5164 O.3    32  UNL32      -0.3982
    188 C           5.0683    1.1217    3.8359 C.3    32  UNL32       0.0330
    189 H           4.5443    0.4841    4.5523 H      32  UNL32       0.0521
    190 H           5.5668    0.5076    3.0820 H      32  UNL32       0.0521
    191 H           4.3496    1.7834    3.3467 H      32  UNL32       0.0521
    192 H           6.6525    1.2939    4.9402 H      32  UNL32       0.2090
    193 O           7.3187    0.8325    7.6082 O.3    33  UNL33      -0.3982
    194 C           5.9034    0.8276    7.5742 C.3    33  UNL33       0.0330
    195 H           5.5238    0.0778    8.2728 H      33  UNL33       0.0521
    196 H           5.5632    0.6019    6.5606 H      33  UNL33       0.0521
    197 H           5.5374    1.8143    7.8677 H      33  UNL33       0.0521
    198 H           7.6140   -0.0553    7.3433 H      33  UNL33       0.2090
    199 O           5.6203    0.8059   10.9344 O.3    34  UNL34      -0.3982
    200 C           4.2775    1.0735   10.5741 C.3    34  UNL34       0.0330
    201 H           3.7380    0.1313   10.4497 H      34  UNL34       0.0521
    202 H           4.2562    1.6437    9.6422 H      34  UNL34       0.0521
    203 H           3.8066    1.6584   11.3676 H      34  UNL34       0.0521
    204 H           6.0118    0.2860   10.2119 H      34  UNL34       0.2090
    205 O           5.2460    0.7517   13.8231 O.3    35  UNL35      -0.3982
    206 C           6.4758    1.4506   13.8830 C.3    35  UNL35       0.0330
    207 H           6.7442    1.8038   12.8842 H      35  UNL35       0.0521
    208 H           7.2543    0.7876   14.2681 H      35  UNL35       0.0521
    209 H           6.3656    2.3069   14.5525 H      35  UNL35       0.0521
    210 H           5.3746   -0.0019   13.2222 H      35  UNL35       0.2090
    211 O           5.6402    4.5380    1.2863 O.3    36  UNL36      -0.3982
    212 C           4.2559    4.2604    1.1803 C.3    36  UNL36       0.0330
    213 H           3.9709    3.5286    1.9403 H      36  UNL36       0.0521
    214 H           4.0369    3.8704    0.1834 H      36  UNL36       0.0521
    215 H           3.6950    5.1844    1.3390 H      36  UNL36       0.0521
    216 H           6.1116    3.7001    1.1410 H      36  UNL36       0.2090
    217 O           5.6623    4.7175    3.9915 O.3    37  UNL37      -0.3982
    218 C           4.2630    4.7394    4.2059 C.3    37  UNL37       0.0330
    219 H           4.0320    5.4029    5.0430 H      37  UNL37       0.0521
    220 H           3.9106    3.7277    4.4210 H      37  UNL37       0.0521
    221 H           3.7711    5.1100    3.3035 H      37  UNL37       0.0521
    222 H           6.0713    4.3845    4.8085 H      37  UNL37       0.2090
    223 O           4.6793    4.4211    7.0299 O.3    38  UNL38      -0.3982
    224 C           3.2750    4.2782    7.1395 C.3    38  UNL38       0.0330
    225 H           3.0428    3.3633    7.6902 H      38  UNL38       0.0521
    226 H           2.8331    4.2372    6.1409 H      38  UNL38       0.0521
    227 H           2.8714    5.1381    7.6791 H      38  UNL38       0.0521
    228 H           5.0088    3.6441    6.5470 H      38  UNL38       0.2090
    229 O           6.0905    3.3931   10.4663 O.3    39  UNL39      -0.3982
    230 C           6.0965    4.6980   11.0157 C.3    39  UNL39       0.0330
    231 H           5.0917    4.9536   11.3610 H      39  UNL39       0.0521
    232 H           6.4253    5.4122   10.2569 H      39  UNL39       0.0521
    233 H           6.7877    4.7242   11.8613 H      39  UNL39       0.0521
    234 H           5.4688    3.4008    9.7186 H      39  UNL39       0.2090
    235 O           5.6248    4.4959   14.1639 O.3    40  UNL40      -0.3982
    236 C           4.2547    4.1968   13.9697 C.3    40  UNL40       0.0330
    237 H           4.0985    3.1196   14.0677 H      40  UNL40       0.0521
    238 H           3.9449    4.5318   12.9768 H      40  UNL40       0.0521
    239 H           3.6662    4.7186   14.7280 H      40  UNL40       0.0521
    240 H           6.1214    4.0193   13.4770 H      40  UNL40       0.2090
    241 O           4.6309    7.3332    0.4165 O.3    41  UNL41      -0.3982
    242 C           3.3699    7.6349    0.9851 C.3    41  UNL41       0.0330
    243 H           3.1294    6.8961    1.7537 H      41  UNL41       0.0521
    244 H           2.6056    7.6260    0.2042 H      41  UNL41       0.0521
    245 H           3.4130    8.6281    1.4383 H      41  UNL41       0.0521
    246 H           4.5618    6.4469    0.0224 H      41  UNL41       0.2090
    247 O           6.3730    7.1304    3.3902 O.3    42  UNL42      -0.3982
    248 C           5.7226    7.7115    4.5054 C.3    42  UNL42       0.0330
    249 H           5.0330    6.9865    4.9449 H      42  UNL42       0.0521
    250 H           5.1766    8.6026    4.1863 H      42  UNL42       0.0521
    251 H           6.4733    7.9932    5.2475 H      42  UNL42       0.0521
    252 H           5.6820    6.8909    2.7493 H      42  UNL42       0.2090
    253 O           5.7015    7.2754    7.1915 O.3    43  UNL43      -0.3982
    254 C           4.2921    7.3270    7.0678 C.3    43  UNL43       0.0330
    255 H           3.8360    7.2707    8.0593 H      43  UNL43       0.0521
    256 H           3.9491    6.4939    6.4494 H      43  UNL43       0.0521
    257 H           4.0114    8.2700    6.5929 H      43  UNL43       0.0521
    258 H           5.9203    6.4282    7.6157 H      43  UNL43       0.2090
    259 O           6.7856    7.8670   10.2245 O.3    44  UNL44      -0.3982
    260 C           5.4707    7.9332   10.7454 C.3    44  UNL44       0.0330
    261 H           5.2155    6.9801   11.2151 H      44  UNL44       0.0521
    262 H           4.7686    8.1531    9.9375 H      44  UNL44       0.0521
    263 H           5.4241    8.7292   11.4923 H      44  UNL44       0.0521
    264 H           6.7960    7.1526    9.5650 H      44  UNL44       0.2090
    265 O           5.6038    7.8881   13.9217 O.3    45  UNL45      -0.3982
    266 C           4.2512    7.4732   13.8671 C.3    45  UNL45       0.0330
    267 H           3.9862    6.9679   14.7991 H      45  UNL45       0.0521
    268 H           4.1107    6.7966   13.0206 H      45  UNL45       0.0521
    269 H           3.6150    8.3519   13.7379 H      45  UNL45       0.0521
    270 H           6.1437    7.0876   14.0366 H      45  UNL45       0.2090
    271 O           5.7040   11.0073    0.7356 O.3    46  UNL46      -0.3982
    272 C           4.3164   11.2430    0.5821 C.3    46  UNL46       0.0330
    273 H           3.8297   11.2089    1.5600 H      46  UNL46       0.0521
    274 H           3.8877   10.4841   -0.0769 H      46  UNL46       0.0521
    275 H           4.1708   12.2311    0.1393 H      46  UNL46       0.0521
    276 H           5.8018   10.1240    1.1302 H      46  UNL46       0.2090
    277 O           5.8517   10.7754    3.9359 O.3    47  UNL47      -0.3982
    278 C           4.6571   11.2060    4.5619 C.3    47  UNL47       0.0330
    279 H           4.8953   11.9323    5.3430 H      47  UNL47       0.0521
    280 H           4.1409   10.3457    4.9947 H      47  UNL47       0.0521
    281 H           4.0136   11.6760    3.8144 H      47  UNL47       0.0521
    282 H           6.4019   10.3629    4.6234 H      47  UNL47       0.2090
    283 O           6.3663    9.9228    8.4897 O.3    48  UNL48      -0.3982
    284 C           5.6118   10.6694    7.5528 C.3    48  UNL48       0.0330
    285 H           5.0604    9.9872    6.9010 H      48  UNL48       0.0521
    286 H           6.2828   11.2950    6.9591 H      48  UNL48       0.0521
    287 H           4.9057   11.3056    8.0915 H      48  UNL48       0.0521
    288 H           6.9835    9.3684    7.9825 H      48  UNL48       0.2090
    289 O           4.7009   11.0687   10.6802 O.3    49  UNL49      -0.3982
    290 C           3.3190   11.3654   10.7638 C.3    49  UNL49       0.0330
    291 H           2.7907   10.5213   11.2139 H      49  UNL49       0.0521
    292 H           2.9267   11.5629    9.7633 H      49  UNL49       0.0521
    293 H           3.1831   12.2520   11.3876 H      49  UNL49       0.0521
    294 H           4.7900   10.2782   10.1210 H      49  UNL49       0.2090
    295 O           5.2210   11.8902   13.0531 O.3    50  UNL50      -0.3982
    296 C           4.7475   10.6988   13.6538 C.3    50  UNL50       0.0330
    297 H           3.8082   10.9006   14.1747 H      50  UNL50       0.0521
    298 H           5.4938   10.3233   14.3582 H      50  UNL50       0.0521
    299 H           4.5765    9.9519   12.8751 H      50  UNL50       0.0521
    300 H           5.3635   12.5336   13.7681 H      50  UNL50       0.2090
    301 O           6.4218   13.5847    0.0225 O.3    51  UNL51      -0.3982
    302 C           5.6967   14.1162    1.1163 C.3    51  UNL51       0.0330
    303 H           5.2783   13.2989    1.7089 H      51  UNL51       0.0521
    304 H           4.8948   14.7590    0.7451 H      51  UNL51       0.0521
    305 H           6.3741   14.7052    1.7390 H      51  UNL51       0.0521
    306 H           5.7950   13.0676   -0.5115 H      51  UNL51       0.2090
    307 O           6.9864   13.0934    3.4268 O.3    52  UNL52      -0.3982
    308 C           6.3258   13.9492    4.3410 C.3    52  UNL52       0.0330
    309 H           6.5774   14.9885    4.1157 H      52  UNL52       0.0521
    310 H           6.6327   13.7015    5.3601 H      52  UNL52       0.0521
    311 H           5.2468   13.8084    4.2433 H      52  UNL52       0.0521
    312 H           7.9413   13.2406    3.5366 H      52  UNL52       0.2090
    313 O           5.6960   14.0579    7.6346 O.3    53  UNL53      -0.3982
    314 C           4.3347   14.3625    7.3928 C.3    53  UNL53       0.0330
    315 H           3.8358   14.5825    8.3399 H      53  UNL53       0.0521
    316 H           3.8519   13.5133    6.9030 H      53  UNL53       0.0521
    317 H           4.2767   15.2374    6.7411 H      53  UNL53       0.0521
    318 H           5.7155   13.2780    8.2152 H      53  UNL53       0.2090
    319 O           5.9939   15.2025   10.5377 O.3    54  UNL54      -0.3982
    320 C           5.8074   13.8752   10.9938 C.3    54  UNL54       0.0330
    321 H           6.0133   13.1767   10.1789 H      54  UNL54       0.0521
    322 H           4.7800   13.7504   11.3442 H      54  UNL54       0.0521
    323 H           6.4973   13.6828   11.8188 H      54  UNL54       0.0521
    324 H           5.3687   15.3439    9.8065 H      54  UNL54       0.2090
    325 O           4.4864   15.0769   13.8059 O.3    55  UNL55      -0.3982
    326 C           3.2583   14.3738   13.8485 C.3    55  UNL55       0.0330
    327 H           3.3778   13.4656   14.4446 H      55  UNL55       0.0521
    328 H           2.9488   14.1174   12.8324 H      55  UNL55       0.0521
    329 H           2.4995   15.0114   14.3082 H      55  UNL55       0.0521
    330 H           5.1396   14.4864   13.3934 H      55  UNL55       0.2090
    331 O           6.3601   16.9723    3.4212 O.3    56  UNL56      -0.3982
    332 C           5.7158   17.3241    4.6318 C.3    56  UNL56       0.0330
    333 H           5.4151   16.4173    5.1625 H      56  UNL56       0.0521
    334 H           4.8393   17.9390    4.4137 H      56  UNL56       0.0521
    335 H           6.4120   17.8930    5.2525 H      56  UNL56       0.0521
    336 H           5.7183   16.4689    2.8918 H      56  UNL56       0.2090
    337 O          10.1685    0.1498    1.1336 O.3    57  UNL57      -0.3982
    338 C           8.9611    0.8430    0.8766 C.3    57  UNL57       0.0330
    339 H           9.0194    1.3282   -0.1009 H      57  UNL57       0.0521
    340 H           8.7957    1.5900    1.6567 H      57  UNL57       0.0521
    341 H           8.1342    0.1290    0.8778 H      57  UNL57       0.0521
    342 H          10.8834    0.8088    1.1264 H      57  UNL57       0.2090
    343 O          10.3799    0.9537    3.7724 O.3    58  UNL58      -0.3982
    344 C           8.9879    0.7978    3.9785 C.3    58  UNL58       0.0330
    345 H           8.4903    1.7632    3.8576 H      58  UNL58       0.0521
    346 H           8.8090    0.4070    4.9832 H      58  UNL58       0.0521
    347 H           8.5962    0.0935    3.2409 H      58  UNL58       0.0521
    348 H          10.6990    1.5836    4.4409 H      58  UNL58       0.2090
    349 O          10.2232   -0.0516    7.6135 O.3    59  UNL59      -0.3982
    350 C          10.3694    1.2985    7.2130 C.3    59  UNL59       0.0330
    351 H           9.4928    1.6058    6.6374 H      59  UNL59       0.0521
    352 H          11.2721    1.4038    6.6064 H      59  UNL59       0.0521
    353 H          10.4562    1.9258    8.1033 H      59  UNL59       0.0521
    354 H          10.1487   -0.5835    6.8030 H      59  UNL59       0.2090
    355 O          10.4027    0.9383   10.3787 O.3    60  UNL60      -0.3982
    356 C           9.0082    0.9297   10.1336 C.3    60  UNL60       0.0330
    357 H           8.4706    1.0377   11.0789 H      60  UNL60       0.0521
    358 H           8.7285   -0.0085    9.6482 H      60  UNL60       0.0521
    359 H           8.7577    1.7660    9.4768 H      60  UNL60       0.0521
    360 H          10.5946    0.1856   10.9637 H      60  UNL60       0.2090
    361 O          11.2903    0.4309   13.5878 O.3    61  UNL61      -0.3982
    362 C           9.9570    0.9042   13.6405 C.3    61  UNL61       0.0330
    363 H           9.7909    1.6192   12.8308 H      61  UNL61       0.0521
    364 H           9.7773    1.3829   14.6062 H      61  UNL61       0.0521
    365 H           9.2750    0.0589   13.5228 H      61  UNL61       0.0521
    366 H          11.8719    1.2027   13.6950 H      61  UNL61       0.2090
    367 O          10.3024    4.4535    0.9499 O.3    62  UNL62      -0.3982
    368 C           8.9835    4.1232    0.5552 C.3    62  UNL62       0.0330
    369 H           8.4571    3.6587    1.3928 H      62  UNL62       0.0521
    370 H           9.0175    3.4361   -0.2937 H      62  UNL62       0.0521
    371 H           8.4613    5.0367    0.2611 H      62  UNL62       0.0521
    372 H          10.7406    3.6238    1.2050 H      62  UNL62       0.2090
    373 O          11.3679    4.1960    3.7294 O.3    63  UNL63      -0.3982
    374 C          10.0492    4.3544    4.2198 C.3    63  UNL63       0.0330
    375 H           9.8235    3.5521    4.9266 H      63  UNL63       0.0521
    376 H           9.3438    4.3287    3.3857 H      63  UNL63       0.0521
    377 H           9.9729    5.3179    4.7291 H      63  UNL63       0.0521
    378 H          11.4049    3.3329    3.2829 H      63  UNL63       0.2090
    379 O           9.1202    4.2788    7.3003 O.3    64  UNL64      -0.3982
    380 C           7.8285    4.7620    6.9802 C.3    64  UNL64       0.0330
    381 H           7.3851    5.2313    7.8619 H      64  UNL64       0.0521
    382 H           7.2021    3.9332    6.6416 H      64  UNL64       0.0521
    383 H           7.9139    5.5016    6.1806 H      64  UNL64       0.0521
    384 H           9.0124    3.6250    8.0120 H      64  UNL64       0.2090
    385 O          10.4123    4.2513   10.4751 O.3    65  UNL65      -0.3982
    386 C           9.0279    4.4569   10.6893 C.3    65  UNL65       0.0330
    387 H           8.5628    3.5179   10.9995 H      65  UNL65       0.0521
    388 H           8.5654    4.8178    9.7674 H      65  UNL65       0.0521
    389 H           8.8972    5.2033   11.4763 H      65  UNL65       0.0521
    390 H          10.4967    3.5848    9.7722 H      65  UNL65       0.2090
    391 O          10.6314    4.3255   14.6815 O.3    66  UNL66      -0.3982
    392 C          10.2969    4.3231   13.3058 C.3    66  UNL66       0.0330
    393 H           9.2247    4.1454   13.1908 H      66  UNL66       0.0521
    394 H          10.8636    3.5418   12.7936 H      66  UNL66       0.0521
    395 H          10.5510    5.2952   12.8767 H      66  UNL66       0.0521
    396 H          10.3948    3.4510   15.0346 H      66  UNL66       0.2090
    397 O          10.0465    7.4325    1.1070 O.3    67  UNL67      -0.3982
    398 C           8.7079    7.6417    0.6959 C.3    67  UNL67       0.0330
    399 H           8.5721    7.2546   -0.3170 H      67  UNL67       0.0521
    400 H           8.4805    8.7102    0.7227 H      67  UNL67       0.0521
    401 H           8.0397    7.1120    1.3788 H      67  UNL67       0.0521
    402 H          10.6157    7.9141    0.4827 H      67  UNL67       0.2090
    403 O          10.3127    8.1621    4.3169 O.3    68  UNL68      -0.3982
    404 C           9.0678    7.9952    3.6636 C.3    68  UNL68       0.0330
    405 H           8.2565    8.2180    4.3611 H      68  UNL68       0.0521
    406 H           8.9799    6.9677    3.3021 H      68  UNL68       0.0521
    407 H           9.0161    8.6829    2.8163 H      68  UNL68       0.0521
    408 H          10.3294    7.5393    5.0635 H      68  UNL68       0.2090
    409 O          10.3558    7.0739    7.2689 O.3    69  UNL69      -0.3982
    410 C           9.0856    7.6849    7.4031 C.3    69  UNL69       0.0330
    411 H           8.4005    6.9969    7.9047 H      69  UNL69       0.0521
    412 H           8.6991    7.9448    6.4147 H      69  UNL69       0.0521
    413 H           9.1896    8.5930    8.0016 H      69  UNL69       0.0521
    414 H          10.2317    6.2717    6.7336 H      69  UNL69       0.2090
    415 O          11.3024    7.5327    9.9540 O.3    70  UNL70      -0.3982
    416 C           9.9881    7.2620   10.4056 C.3    70  UNL70       0.0330
    417 H          10.0312    6.6435   11.3056 H      70  UNL70       0.0521
    418 H           9.4317    6.7439    9.6208 H      70  UNL70       0.0521
    419 H           9.4909    8.2065   10.6387 H      70  UNL70       0.0521
    420 H          11.7181    6.6765    9.7551 H      70  UNL70       0.2090
    421 O          10.3940    7.7536   13.4537 O.3    71  UNL71      -0.3982
    422 C           8.9844    7.6320   13.4035 C.3    71  UNL71       0.0330
    423 H           8.5627    7.8614   14.3853 H      71  UNL71       0.0521
    424 H           8.7159    6.6147   13.1085 H      71  UNL71       0.0521
    425 H           8.5928    8.3378   12.6672 H      71  UNL71       0.0521
    426 H          10.7125    7.1157   14.1149 H      71  UNL71       0.2090
    427 O          11.3978   10.5302    1.0552 O.3    72  UNL72      -0.3982
    428 C          10.0337   10.8989    0.9674 C.3    72  UNL72       0.0330
    429 H           9.4302   10.2113    1.5652 H      72  UNL72       0.0521
    430 H           9.7136   10.8681   -0.0769 H      72  UNL72       0.0521
    431 H           9.9146   11.9142    1.3529 H      72  UNL72       0.0521
    432 H          11.4723    9.6256    0.7063 H      72  UNL72       0.2090
    433 O          10.3397   10.8436    3.7778 O.3    73  UNL73      -0.3982
    434 C           9.0020   10.6458    4.1970 C.3    73  UNL73       0.0330
    435 H           8.9657    9.8405    4.9349 H      73  UNL73       0.0521
    436 H           8.3825   10.3913    3.3335 H      73  UNL73       0.0521
    437 H           8.6312   11.5685    4.6493 H      73  UNL73       0.0521
    438 H          10.6412   10.0087    3.3809 H      73  UNL73       0.2090
    439 O          10.2353   10.4206    6.7144 O.3    74  UNL74      -0.3982
    440 C           8.9561   10.9251    7.0514 C.3    74  UNL74       0.0330
    441 H           8.8154   11.9041    6.5866 H      74  UNL74       0.0521
    442 H           8.8714   11.0100    8.1375 H      74  UNL74       0.0521
    443 H           8.1935   10.2356    6.6815 H      74  UNL74       0.0521
    444 H          10.8906   11.0530    7.0553 H      74  UNL74       0.2090
    445 O          11.0896   11.1638    9.7624 O.3    75  UNL75      -0.3982
    446 C          10.2283   10.8985   10.8543 C.3    75  UNL75       0.0330
    447 H           9.3195   10.4110   10.4927 H      75  UNL75       0.0521
    448 H           9.9765   11.8355   11.3569 H      75  UNL75       0.0521
    449 H          10.7393   10.2364   11.5573 H      75  UNL75       0.0521
    450 H          10.6092   11.7531    9.1562 H      75  UNL75       0.2090
    451 O           9.4686   10.9811   13.8647 O.3    76  UNL76      -0.3982
    452 C           8.1009   10.9188   13.5043 C.3    76  UNL76       0.0330
    453 H           7.6457   10.0309   13.9502 H      76  UNL76       0.0521
    454 H           8.0114   10.8795   12.4160 H      76  UNL76       0.0521
    455 H           7.5940   11.8118   13.8774 H      76  UNL76       0.0521
    456 H           9.8918   10.1762   13.5204 H      76  UNL76       0.2090
    457 O          10.4072   14.5051    1.0284 O.3    77  UNL77      -0.3982
    458 C           8.9923   14.5541    1.0193 C.3    77  UNL77       0.0330
    459 H           8.5917   13.6174    1.4148 H      77  UNL77       0.0521
    460 H           8.6388   14.7112   -0.0027 H      77  UNL77       0.0521
    461 H           8.6614   15.3838    1.6484 H      77  UNL77       0.0521
    462 H          10.6709   13.7599    0.4621 H      77  UNL77       0.2090
    463 O           9.7830   15.0915    4.0004 O.3    78  UNL78      -0.3982
    464 C          10.4162   13.8288    3.9056 C.3    78  UNL78       0.0330
    465 H          11.5000   13.9651    3.8727 H      78  UNL78       0.0521
    466 H          10.0752   13.3160    3.0030 H      78  UNL78       0.0521
    467 H          10.1526   13.2324    4.7823 H      78  UNL78       0.0521
    468 H          10.0353   15.5977    3.2094 H      78  UNL78       0.2090
    469 O          11.3925   14.2672    6.9642 O.3    79  UNL79      -0.3982
    470 C          10.0255   14.3088    7.3306 C.3    79  UNL79       0.0330
    471 H           9.7674   13.4015    7.8823 H      79  UNL79       0.0521
    472 H           9.4089   14.3896    6.4321 H      79  UNL79       0.0521
    473 H           9.8546   15.1805    7.9667 H      79  UNL79       0.0521
    474 H          11.5135   13.4840    6.4007 H      79  UNL79       0.2090
    475 O          10.2784   14.6959   10.2171 O.3    80  UNL80      -0.3982
    476 C           8.9718   14.1523   10.1738 C.3    80  UNL80       0.0330
    477 H           8.5414   14.1555   11.1784 H      80  UNL80       0.0521
    478 H           9.0137   13.1312    9.7870 H      80  UNL80       0.0521
    479 H           8.3539   14.7649    9.5131 H      80  UNL80       0.0521
    480 H          10.8030   14.1317   10.8104 H      80  UNL80       0.2090
    481 O          11.3836   13.9926   14.1508 O.3    81  UNL81      -0.3982
    482 C          10.0420   14.2554   13.7825 C.3    81  UNL81       0.0330
    483 H           9.3825   14.0397   14.6268 H      81  UNL81       0.0521
    484 H           9.7701   13.6339   12.9259 H      81  UNL81       0.0521
    485 H           9.9483   15.3091   13.5097 H      81  UNL81       0.0521
    486 H          11.4357   13.0509   14.3873 H      81  UNL81       0.2090
    487 O           8.9416   16.9005   11.3431 O.3    82  UNL82      -0.3982
    488 C           9.6236   17.3769   10.1975 C.3    82  UNL82       0.0330
    489 H           9.3704   18.4271   10.0321 H      82  UNL82       0.0521
    490 H           9.3373   16.7807    9.3277 H      82  UNL82       0.0521
    491 H          10.6999   17.2852   10.3610 H      82  UNL82       0.0521
    492 H           7.9896   16.9943   11.1685 H      82  UNL82       0.2090
@<TRIPOS>BOND
     1     1     2    1
     2     1     6    1
     3     2     3    1
     4     2     4    1
     5     2     5    1
     6     7     8    1
     7     7    12    1
     8     8     9    1
     9     8    10    1
    10     8    11    1
    11    13    14    1
    12    13    18    1
    13    14    15    1
    14    14    16    1
    15    14    17    1
    16    19    20    1
    17    19    24    1
    18    20    21    1
    19    20    22    1
    20    20    23    1
    21    25    26    1
    22    25    30    1
    23    26    27    1
    24    26    28    1
    25    26    29    1
    26    31    32    1
    27    31    36    1
    28    32    33    1
    29    32    34    1
    30    32    35    1
    31    37    38    1
    32    37    42    1
    33    38    39    1
    34    38    40    1
    35    38    41    1
    36    43    44    1
    37    43    48    1
    38    44    45    1
    39    44    46    1
    40    44    47    1
    41    49    50    1
    42    49    54    1
    43    50    51    1
    44    50    52    1
    45    50    53    1
    46    55    56    1
    47    55    60    1
    48    56    57    1
    49    56    58    1
    50    56    59    1
    51    61    62    1
    52    61    66    1
    53    62    63    1
    54    62    64    1
    55    62    65    1
    56    67    68    1
    57    67    72    1
    58    68    69    1
    59    68    70    1
    60    68    71    1
    61    73    74    1
    62    73    78    1
    63    74    75    1
    64    74    76    1
    65    74    77    1
    66    79    80    1
    67    79    84    1
    68    80    81    1
    69    80    82    1
    70    80    83    1
    71    85    86    1
    72    85    90    1
    73    86    87    1
    74    86    88    1
    75    86    89    1
    76    91    92    1
    77    91    96    1
    78    92    93    1
    79    92    94    1
    80    92    95    1
    81    97    98    1
    82    97   102    1
    83    98    99    1
    84    98   100    1
    85    98   101    1
    86   103   104    1
    87   103   108    1
    88   104   105    1
    89   104   106    1
    90   104   107    1
    91   109   110    1
    92   109   114    1
    93   110   111    1
    94   110   112    1
    95   110   113    1
    96   115   116    1
    97   115   120    1
    98   116   117    1
    99   116   118    1
   100   116   119    1
   101   121   122    1
   102   121   126    1
   103   122   123    1
   104   122   124    1
   105   122   125    1
   106   127   128    1
   107   127   132    1
   108   128   129    1
   109   128   130    1
   110   128   131    1
   111   133   134    1
   112   133   138    1
   113   134   135    1
   114   134   136    1
   115   134   137    1
   116   139   140    1
   117   139   144    1
   118   140   141    1
   119   140   142    1
   120   140   143    1
   121   145   146    1
   122   145   150    1
   123   146   147    1
   124   146   148    1
   125   146   149    1
   126   151   152    1
   127   151   156    1
   128   152   153    1
   129   152   154    1
   130   152   155    1
   131   157   158    1
   132   157   162    1
   133   158   159    1
   134   158   160    1
   135   158   161    1
   136   163   164    1
   137   163   168    1
   138   164   165    1
   139   164   166    1
   140   164   167    1
   141   169   170    1
   142   169   174    1
   143   170   171    1
   144   170   172    1
   145   170   173    1
   146   175   176    1
   147   175   180    1
   148   176   177    1
   149   176   178    1
   150   176   179    1
   151   181   182    1
   152   181   186    1
   153   182   183    1
   154   182   184    1
   155   182   185    1
   156   187   188    1
   157   187   192    1
   158   188   189    1
   159   188   190    1
   160   188   191    1
   161   193   194    1
   162   193   198    1
   163   194   195    1
   164   194   196    1
   165   194   197    1
   166   199   200    1
   167   199   204    1
   168   200   201    1
   169   200   202    1
   170   200   203    1
   171   205   206    1
   172   205   210    1
   173   206   207    1
   174   206   208    1
   175   206   209    1
   176   211   212    1
   177   211   216    1
   178   212   213    1
   179   212   214    1
   180   212   215    1
   181   217   218    1
   182   217   222    1
   183   218   219    1
   184   218   220    1
   185   218   221    1
   186   223   224    1
   187   223   228    1
   188   224   225    1
   189   224   226    1
   190   224   227    1
   191   229   230    1
   192   229   234    1
   193   230   231    1
   194   230   232    1
   195   230   233    1
   196   235   236    1
   197   235   240    1
   198   236   237    1
   199   236   238    1
   200   236   239    1
   201   241   242    1
   202   241   246    1
   203   242   243    1
   204   242   244    1
   205   242   245    1
   206   247   248    1
   207   247   252    1
   208   248   249    1
   209   248   250    1
   210   248   251    1
   211   253   254    1
   212   253   258    1
   213   254   255    1
   214   254   256    1
   215   254   257    1
   216   259   260    1
   217   259   264    1
   218   260   261    1
   219   260   262    1
   220   260   263    1
   221   265   266    1
   222   265   270    1
   223   266   267    1
   224   266   268    1
   225   266   269    1
   226   271   272    1
   227   271   276    1
   228   272   273    1
   229   272   274    1
   230   272   275    1
   231   277   278    1
   232   277   282    1
   233   278   279    1
   234   278   280    1
   235   278   281    1
   236   283   284    1
   237   283   288    1
   238   284   285    1
   239   284   286    1
   240   284   287    1
   241   289   290    1
   242   289   294    1
   243   290   291    1
   244   290   292    1
   245   290   293    1
   246   295   296    1
   247   295   300    1
   248   296   297    1
   249   296   298    1
   250   296   299    1
   251   301   302    1
   252   301   306    1
   253   302   303    1
   254   302   304    1
   255   302   305    1
   256   307   308    1
   257   307   312    1
   258   308   309    1
   259   308   310    1
   260   308   311    1
   261   313   314    1
   262   313   318    1
   263   314   315    1
   264   314   316    1
   265   314   317    1
   266   319   320    1
   267   319   324    1
   268   320   321    1
   269   320   322    1
   270   320   323    1
   271   325   326    1
   272   325   330    1
   273   326   327    1
   274   326   328    1
   275   326   329    1
   276   331   332    1
   277   331   336    1
   278   332   333    1
   279   332   334    1
   280   332   335    1
   281   337   338    1
   282   337   342    1
   283   338   339    1
   284   338   340    1
   285   338   341    1
   286   343   344    1
   287   343   348    1
   288   344   345    1
   289   344   346    1
   290   344   347    1
   291   349   350    1
   292   349   354    1
   293   350   351    1
   294   350   352    1
   295   350   353    1
   296   355   356    1
   297   355   360    1
   298   356   357    1
   299   356   358    1
   300   356   359    1
   301   361   362    1
   302   361   366    1
   303   362   363    1
   304   362   364    1
   305   362   365    1
   306   367   368    1
   307   367   372    1
   308   368   369    1
   309   368   370    1
   310   368   371    1
   311   373   374    1
   312   373   378    1
   313   374   375    1
   314   374   376    1
   315   374   377    1
   316   379   380    1
   317   379   384    1
   318   380   381    1
   319   380   382    1
   320   380   383    1
   321   385   386    1
   322   385   390    1
   323   386   387    1
   324   386   388    1
   325   386   389    1
   326   391   392    1
   327   391   396    1
   328   392   393    1
   329   392   394    1
   330   392   395    1
   331   397   398    1
   332   397   402    1
   333   398   399    1
   334   398   400    1
   335   398   401    1
   336   403   404    1
   337   403   408    1
   338   404   405    1
   339   404   406    1
   340   404   407    1
   341   409   410    1
   342   409   414    1
   343   410   411    1
   344   410   412    1
   345   410   413    1
   346   415   416    1
   347   415   420    1
   348   416   417    1
   349   416   418    1
   350   416   419    1
   351   421   422    1
   352   421   426    1
   353   422   423    1
   354   422   424    1
   355   422   425    1
   356   427   428    1
   357   427   432    1
   358   428   429    1
   359   428   430    1
   360   428   431    1
   361   433   434    1
   362   433   438    1
   363   434   435    1
   364   434   436    1
   365   434   437    1
   366   439   440    1
   367   439   444    1
   368   440   441    1
   369   440   442    1
   370   440   443    1
   371   445   446    1
   372   445   450    1
   373   446   447    1
   374   446   448    1
   375   446   449    1
   376   451   452    1
   377   451   456    1
   378   452   453    1
   379   452   454    1
   380   452   455    1
   381   457   458    1
   382   457   462    1
   383   458   459    1
   384   458   460    1
   385   458   461    1
   386   463   464    1
   387   463   468    1
   388   464   465    1
   389   464   466    1
   390   464   467    1
   391   469   470    1
   392   469   474    1
   393   470   471    1
   394   470   472    1
   395   470   473    1
   396   475   476    1
   397   475   480    1
   398   476   477    1
   399   476   478    1
   400   476   479    1
   401   481   482    1
   402   481   486    1
   403   482   483    1
   404   482   484    1
   405   482   485    1
   406   487   488    1
   407   487   492    1
   408   488   489    1
   409   488   490    1
   410   488   491    1
