@<TRIPOS>MOLECULE
*****
 1632 1360 0 0 0
SMALL
GASTEIGER

@<TRIPOS>ATOM
      1 O          -0.4083   -0.0980    1.5698 O.3     1  UNL1       -0.3982
      2 C          -1.7769   -0.3591    1.8214 C.3     1  UNL1        0.0330
      3 H          -2.2999    0.5819    2.0092 H       1  UNL1        0.0521
      4 H          -1.8696   -1.0189    2.6875 H       1  UNL1        0.0521
      5 H          -2.2123   -0.8471    0.9462 H       1  UNL1        0.0521
      6 H          -0.0495    0.3347    2.3632 H       1  UNL1        0.2090
      7 O          -0.4679    2.2037    0.3048 O.3     2  UNL2       -0.3982
      8 C          -1.7797    1.7014    0.1278 C.3     2  UNL2        0.0330
      9 H          -1.7310    0.6608   -0.2025 H       2  UNL2        0.0521
     10 H          -2.3053    2.3064   -0.6150 H       2  UNL2        0.0521
     11 H          -2.3120    1.7544    1.0804 H       2  UNL2        0.0521
     12 H          -0.0205    2.1440   -0.5564 H       2  UNL2        0.2090
     13 O          -0.5123   15.9395    1.8821 O.3     3  UNL3       -0.3982
     14 C          -1.9148   16.1324    1.8945 C.3     3  UNL3        0.0330
     15 H          -2.1559   17.0233    2.4798 H       3  UNL3        0.0521
     16 H          -2.4003   15.2554    2.3294 H       3  UNL3        0.0521
     17 H          -2.2639   16.2680    0.8682 H       3  UNL3        0.0521
     18 H          -0.2319   15.8222    2.8058 H       3  UNL3        0.2090
     19 O           1.6227   -0.2405    0.4511 O.3     4  UNL4       -0.3982
     20 C           0.4840   -0.4860   -0.3536 C.3     4  UNL4        0.0330
     21 H          -0.0613    0.4481   -0.5097 H       4  UNL4        0.0521
     22 H          -0.1602   -1.2185    0.1388 H       4  UNL4        0.0521
     23 H           0.8095   -0.8809   -1.3189 H       4  UNL4        0.0521
     24 H           1.3025    0.1088    1.3002 H       4  UNL4        0.2090
     25 O           1.8771    0.0344    2.1203 O.3     5  UNL5       -0.3982
     26 C           0.5338   -0.3278    1.8583 C.3     5  UNL5        0.0330
     27 H          -0.0620    0.5733    1.6928 H       5  UNL5        0.0521
     28 H           0.1352   -0.8904    2.7060 H       5  UNL5        0.0521
     29 H           0.5025   -0.9522    0.9623 H       5  UNL5        0.0521
     30 H           1.8731    0.5875    2.9201 H       5  UNL5        0.2090
     31 O           0.9501    0.8789    4.0070 O.3     6  UNL6       -0.3982
     32 C           0.9181   -0.5219    4.2102 C.3     6  UNL6        0.0330
     33 H           1.1042   -1.0329    3.2623 H       6  UNL6        0.0521
     34 H          -0.0581   -0.8112    4.6069 H       6  UNL6        0.0521
     35 H           1.6958   -0.7947    4.9275 H       6  UNL6        0.0521
     36 H           0.2497    1.0907    3.3666 H       6  UNL6        0.2090
     37 O           1.7526    0.9005    0.0665 O.3     7  UNL7       -0.3982
     38 C           0.6993    1.8466    0.0609 C.3     7  UNL7        0.0330
     39 H          -0.2421    1.3465    0.3021 H       7  UNL7        0.0521
     40 H           0.6338    2.3143   -0.9244 H       7  UNL7        0.0521
     41 H           0.9055    2.6123    0.8124 H       7  UNL7        0.0521
     42 H           1.5419    0.2343   -0.6097 H       7  UNL7        0.2090
     43 O           1.7246    1.5930    2.4992 O.3     8  UNL8       -0.3982
     44 C           0.5042    1.3594    1.8205 C.3     8  UNL8        0.0330
     45 H           0.2954    2.1941    1.1467 H       8  UNL8        0.0521
     46 H          -0.3040    1.2538    2.5482 H       8  UNL8        0.0521
     47 H           0.5913    0.4382    1.2397 H       8  UNL8        0.0521
     48 H           1.6169    2.4161    3.0055 H       8  UNL8        0.2090
     49 O          -2.1918    4.0342    3.9522 O.3     9  UNL9       -0.3982
     50 C          -0.8288    3.7114    3.7460 C.3     9  UNL9        0.0330
     51 H          -0.4501    3.1571    4.6083 H       9  UNL9        0.0521
     52 H          -0.2528    4.6298    3.6082 H       9  UNL9        0.0521
     53 H          -0.7419    3.0917    2.8505 H       9  UNL9        0.0521
     54 H          -2.2372    4.5841    4.7529 H       9  UNL9        0.2090
     55 O           1.4726    3.5415    0.8760 O.3    10  UNL10      -0.3982
     56 C           0.5764    3.6807   -0.2111 C.3    10  UNL10       0.0330
     57 H           1.0895    3.4278   -1.1423 H      10  UNL10       0.0521
     58 H           0.2094    4.7091   -0.2525 H      10  UNL10       0.0521
     59 H          -0.2665    3.0010   -0.0659 H      10  UNL10       0.0521
     60 H           2.2095    4.1563    0.7194 H      10  UNL10       0.2090
     61 O           1.5799    3.3892    2.1295 O.3    11  UNL11      -0.3982
     62 C           0.2864    3.7027    1.6466 C.3    11  UNL11       0.0330
     63 H           0.1098    4.7766    1.7459 H      11  UNL11       0.0521
     64 H          -0.4611    3.1454    2.2165 H      11  UNL11       0.0521
     65 H           0.2225    3.4210    0.5930 H      11  UNL11       0.0521
     66 H           1.6063    3.6501    3.0658 H      11  UNL11       0.2090
     67 O           1.4221    3.5893    4.7400 O.3    12  UNL12      -0.3982
     68 C           0.2856    3.6039    3.8958 C.3    12  UNL12       0.0330
     69 H           0.5262    4.1296    2.9684 H      12  UNL12       0.0521
     70 H          -0.5419    4.1030    4.4060 H      12  UNL12       0.0521
     71 H           0.0009    2.5746    3.6654 H      12  UNL12       0.0521
     72 H           1.6509    4.5157    4.9272 H      12  UNL12       0.2090
     73 O           0.5645    5.5734    0.3896 O.3    13  UNL13      -0.3982
     74 C          -0.8199    5.4570    0.1168 C.3    13  UNL13       0.0330
     75 H          -1.1848    6.3879   -0.3242 H      13  UNL13       0.0521
     76 H          -1.3582    5.2449    1.0437 H      13  UNL13       0.0521
     77 H          -0.9754    4.6369   -0.5881 H      13  UNL13       0.0521
     78 H           0.6712    6.3084    1.0172 H      13  UNL13       0.2090
     79 O           1.7706    5.3738    1.9415 O.3    14  UNL14      -0.3982
     80 C           0.4813    5.9577    1.9772 C.3    14  UNL14       0.0330
     81 H           0.5668    7.0165    2.2340 H      14  UNL14       0.0521
     82 H          -0.1335    5.4406    2.7179 H      14  UNL14       0.0521
     83 H           0.0197    5.8602    0.9918 H      14  UNL14       0.0521
     84 H           2.1549    5.4755    2.8289 H      14  UNL14       0.2090
     85 O           0.9927    5.5258    4.9611 O.3    15  UNL15      -0.3982
     86 C           0.6864    6.1376    3.7216 C.3    15  UNL15       0.0330
     87 H          -0.3297    5.8685    3.4226 H      15  UNL15       0.0521
     88 H           1.4005    5.8057    2.9641 H      15  UNL15       0.0521
     89 H           0.7556    7.2221    3.8340 H      15  UNL15       0.0521
     90 H           0.9231    4.5648    4.8303 H      15  UNL15       0.2090
     91 O           1.7216    8.0510   -0.4115 O.3    16  UNL16      -0.3982
     92 C           0.4681    7.5316   -0.0069 C.3    16  UNL16       0.0330
     93 H          -0.2496    8.3491    0.0972 H      16  UNL16       0.0521
     94 H           0.5801    7.0074    0.9452 H      16  UNL16       0.0521
     95 H           0.1119    6.8314   -0.7662 H      16  UNL16       0.0521
     96 H           2.0120    8.6685    0.2813 H      16  UNL16       0.2090
     97 O          -0.3064    9.3524    4.9297 O.3    17  UNL17      -0.3982
     98 C          -1.6513    9.7703    4.7852 C.3    17  UNL17       0.0330
     99 H          -1.6992   10.8618    4.8083 H      17  UNL17       0.0521
    100 H          -2.2530    9.3513    5.5954 H      17  UNL17       0.0521
    101 H          -2.0339    9.4112    3.8269 H      17  UNL17       0.0521
    102 H           0.0056    9.6854    5.7884 H      17  UNL17       0.2090
    103 O           1.6688   10.2857   -0.4721 O.3    18  UNL18      -0.3982
    104 C           0.5954    9.4663   -0.0467 C.3    18  UNL18       0.0330
    105 H          -0.3511    9.9829   -0.2245 H      18  UNL18       0.0521
    106 H           0.7064    9.2423    1.0170 H      18  UNL18       0.0521
    107 H           0.6121    8.5345   -0.6168 H      18  UNL18       0.0521
    108 H           1.6281   11.1044    0.0509 H      18  UNL18       0.2090
    109 O           1.8619    9.9129    1.8473 O.3    19  UNL19      -0.3982
    110 C           0.4617    9.7754    2.0048 C.3    19  UNL19       0.0330
    111 H           0.0390   10.7200    2.3560 H      19  UNL19       0.0521
    112 H           0.2514    8.9801    2.7240 H      19  UNL19       0.0521
    113 H           0.0193    9.5172    1.0398 H      19  UNL19       0.0521
    114 H           2.2264   10.1418    2.7193 H      19  UNL19       0.2090
    115 O           1.9554    9.9698    4.0445 O.3    20  UNL20      -0.3982
    116 C           0.5418    9.9529    3.9681 C.3    20  UNL20       0.0330
    117 H           0.2317   10.0138    2.9219 H      20  UNL20       0.0521
    118 H           0.1356   10.7979    4.5294 H      20  UNL20       0.0521
    119 H           0.1737    9.0199    4.4013 H      20  UNL20       0.0521
    120 H           2.2527   10.8088    3.6530 H      20  UNL20       0.2090
    121 O           1.8123   11.9170    1.7937 O.3    21  UNL21      -0.3982
    122 C           0.3970   11.9121    1.8305 C.3    21  UNL21       0.0330
    123 H           0.0228   12.9183    1.6256 H      21  UNL21       0.0521
    124 H           0.0584   11.5794    2.8147 H      21  UNL21       0.0521
    125 H           0.0241   11.2247    1.0677 H      21  UNL21       0.0521
    126 H           2.1139   12.5353    2.4809 H      21  UNL21       0.2090
    127 O          -0.6805   14.4983    4.8052 O.3    22  UNL22      -0.3982
    128 C          -1.1810   14.0671    3.5530 C.3    22  UNL22       0.0330
    129 H          -2.0988   14.6123    3.3191 H      22  UNL22       0.0521
    130 H          -1.3815   12.9936    3.5899 H      22  UNL22       0.0521
    131 H          -0.4332   14.2696    2.7827 H      22  UNL22       0.0521
    132 H          -1.3653   14.3058    5.4682 H      22  UNL22       0.2090
    133 O           1.5844   13.2936    0.4103 O.3    23  UNL23      -0.3982
    134 C           0.4550   14.1194    0.1934 C.3    23  UNL23       0.0330
    135 H          -0.3278   13.5438   -0.3068 H      23  UNL23       0.0521
    136 H           0.7417   14.9760   -0.4216 H      23  UNL23       0.0521
    137 H           0.0837   14.4741    1.1577 H      23  UNL23       0.0521
    138 H           1.8914   12.9943   -0.4625 H      23  UNL23       0.2090
    139 O           1.8730   13.6138    1.8486 O.3    24  UNL24      -0.3982
    140 C           0.4726   13.8111    1.7815 C.3    24  UNL24       0.0330
    141 H           0.2505   14.8790    1.8483 H      24  UNL24       0.0521
    142 H          -0.0114   13.2754    2.6018 H      24  UNL24       0.0521
    143 H           0.1044   13.4235    0.8287 H      24  UNL24       0.0521
    144 H           2.1706   13.9672    2.7042 H      24  UNL24       0.2090
    145 O           1.4117   13.6275    4.2244 O.3    25  UNL25      -0.3982
    146 C           0.0147   13.8576    4.2099 C.3    25  UNL25       0.0330
    147 H          -0.4680   13.1325    3.5500 H      25  UNL25       0.0521
    148 H          -0.1844   14.8735    3.8605 H      25  UNL25       0.0521
    149 H          -0.3752   13.7403    5.2237 H      25  UNL25       0.0521
    150 H           1.7290   13.7385    3.3120 H      25  UNL25       0.2090
    151 O           1.6891   15.7766    0.4612 O.3    26  UNL26      -0.3982
    152 C           0.3414   16.1583    0.2552 C.3    26  UNL26       0.0330
    153 H          -0.2719   15.2663    0.1049 H      26  UNL26       0.0521
    154 H           0.2760   16.8101   -0.6194 H      26  UNL26       0.0521
    155 H          -0.0137   16.6978    1.1363 H      26  UNL26       0.0521
    156 H           1.9763   15.3004   -0.3365 H      26  UNL26       0.2090
    157 O           1.8700   15.9905    1.8378 O.3    27  UNL27      -0.3982
    158 C           0.4785   15.7430    1.9216 C.3    27  UNL27       0.0330
    159 H          -0.0501   16.6838    2.0939 H      27  UNL27       0.0521
    160 H           0.2801   15.0462    2.7395 H      27  UNL27       0.0521
    161 H           0.1386   15.3035    0.9809 H      27  UNL27       0.0521
    162 H           2.1425   16.3799    2.6861 H      27  UNL27       0.2090
    163 O           1.0667   15.8775    3.4318 O.3    28  UNL28      -0.3982
    164 C          -0.1360   16.3650    3.9979 C.3    28  UNL28       0.0330
    165 H          -0.3615   15.8089    4.9112 H      28  UNL28       0.0521
    166 H          -0.9506   16.2510    3.2786 H      28  UNL28       0.0521
    167 H          -0.0116   17.4232    4.2395 H      28  UNL28       0.0521
    168 H           0.9260   14.9372    3.2280 H      28  UNL28       0.2090
    169 O           1.5961   17.4819    0.0827 O.3    29  UNL29      -0.3982
    170 C           0.4779   18.3467    0.0037 C.3    29  UNL29       0.0330
    171 H          -0.3669   17.9011    0.5348 H      29  UNL29       0.0521
    172 H           0.2171   18.5116   -1.0445 H      29  UNL29       0.0521
    173 H           0.7342   19.3020    0.4678 H      29  UNL29       0.0521
    174 H           1.3388   16.6432   -0.3366 H      29  UNL29       0.2090
    175 O           1.1855   17.1637    1.6533 O.3    30  UNL30      -0.3982
    176 C           0.7200   18.3713    2.2273 C.3    30  UNL30       0.0330
    177 H          -0.3554   18.2994    2.4075 H      30  UNL30       0.0521
    178 H           0.9322   19.2028    1.5508 H      30  UNL30       0.0521
    179 H           1.2360   18.5357    3.1762 H      30  UNL30       0.0521
    180 H           0.7102   17.0448    0.8134 H      30  UNL30       0.2090
    181 O           0.9544   17.1556    3.2007 O.3    31  UNL31      -0.3982
    182 C           0.6202   18.2631    4.0169 C.3    31  UNL31       0.0330
    183 H           1.4840   18.9268    4.1038 H      31  UNL31       0.0521
    184 H           0.3177   17.9099    5.0057 H      31  UNL31       0.0521
    185 H          -0.2089   18.8060    3.5570 H      31  UNL31       0.0521
    186 H           1.6923   16.6938    3.6340 H      31  UNL31       0.2090
    187 O           4.1093   -0.3942    0.4385 O.3    32  UNL32      -0.3982
    188 C           2.7178   -0.2384    0.2294 C.3    32  UNL32       0.0330
    189 H           2.2150   -1.1955    0.3888 H      32  UNL32       0.0521
    190 H           2.5387    0.1143   -0.7892 H      32  UNL32       0.0521
    191 H           2.3318    0.4962    0.9401 H      32  UNL32       0.0521
    192 H           4.4232   -1.0514   -0.2059 H      32  UNL32       0.2090
    193 O           3.9855   -0.9619    2.0030 O.3    33  UNL33      -0.3982
    194 C           2.7577   -0.2807    1.8220 C.3    33  UNL33       0.0330
    195 H           2.9531    0.7446    1.4981 H      33  UNL33       0.0521
    196 H           2.2000   -0.2772    2.7617 H      33  UNL33       0.0521
    197 H           2.1741   -0.7974    1.0565 H      33  UNL33       0.0521
    198 H           4.4811   -0.4808    2.6874 H      33  UNL33       0.2090
    199 O           3.7642   -0.3419    4.9451 O.3    34  UNL34      -0.3982
    200 C           2.8595   -0.4668    3.8632 C.3    34  UNL34       0.0330
    201 H           3.4171   -0.5161    2.9247 H      34  UNL34       0.0521
    202 H           2.1824    0.3907    3.8525 H      34  UNL34       0.0521
    203 H           2.2800   -1.3844    3.9888 H      34  UNL34       0.0521
    204 H           4.2639    0.4806    4.8062 H      34  UNL34       0.2090
    205 O           3.6227    0.7090    0.3148 O.3    35  UNL35      -0.3982
    206 C           2.8657    1.8724    0.0352 C.3    35  UNL35       0.0330
    207 H           2.7466    1.9797   -1.0458 H      35  UNL35       0.0521
    208 H           3.3761    2.7474    0.4449 H      35  UNL35       0.0521
    209 H           1.8818    1.7763    0.5002 H      35  UNL35       0.0521
    210 H           4.4897    0.8233   -0.1102 H      35  UNL35       0.2090
    211 O           4.1313    2.1380    1.6844 O.3    36  UNL36      -0.3982
    212 C           2.8039    1.6814    1.8689 C.3    36  UNL36       0.0330
    213 H           2.1739    2.5124    2.1959 H      36  UNL36       0.0521
    214 H           2.7923    0.8850    2.6170 H      36  UNL36       0.0521
    215 H           2.4268    1.2925    0.9201 H      36  UNL36       0.0521
    216 H           4.4388    2.4769    2.5424 H      36  UNL36       0.2090
    217 O           2.1784    3.7402    4.4043 O.3    37  UNL37      -0.3982
    218 C           0.9969    4.2052    3.7779 C.3    37  UNL37       0.0330
    219 H           0.2568    4.4629    4.5396 H      37  UNL37       0.0521
    220 H           0.6022    3.4275    3.1196 H      37  UNL37       0.0521
    221 H           1.2336    5.0935    3.1877 H      37  UNL37       0.0521
    222 H           1.9370    2.9521    4.9203 H      37  UNL37       0.2090
    223 O           3.9860    3.2705   -0.3413 O.3    38  UNL38      -0.3982
    224 C           3.1078    4.0660    0.4336 C.3    38  UNL38       0.0330
    225 H           2.3826    3.4234    0.9389 H      38  UNL38       0.0521
    226 H           2.5907    4.7771   -0.2153 H      38  UNL38       0.0521
    227 H           3.6889    4.6130    1.1797 H      38  UNL38       0.0521
    228 H           3.4422    2.7975   -0.9940 H      38  UNL38       0.2090
    229 O           4.0755    3.6783    2.3027 O.3    39  UNL39      -0.3982
    230 C           2.7465    3.5389    1.8348 C.3    39  UNL39       0.0330
    231 H           2.4070    4.4874    1.4112 H      39  UNL39       0.0521
    232 H           2.0970    3.2440    2.6625 H      39  UNL39       0.0521
    233 H           2.7211    2.7673    1.0618 H      39  UNL39       0.0521
    234 H           4.0665    4.3691    2.9869 H      39  UNL39       0.2090
    235 O           3.4352    2.8070    4.0608 O.3    40  UNL40      -0.3982
    236 C           3.1109    4.1706    4.2606 C.3    40  UNL40       0.0330
    237 H           2.0852    4.3542    3.9311 H      40  UNL40       0.0521
    238 H           3.8044    4.7976    3.6951 H      40  UNL40       0.0521
    239 H           3.1968    4.4040    5.3245 H      40  UNL40       0.0521
    240 H           3.3502    2.6297    3.1085 H      40  UNL40       0.2090
    241 O           1.3895    5.8083    0.9536 O.3    41  UNL41      -0.3982
    242 C           0.9671    6.1289   -0.3592 C.3    41  UNL41       0.0330
    243 H          -0.1192    6.2477   -0.3746 H      41  UNL41       0.0521
    244 H           1.2669    5.3321   -1.0441 H      41  UNL41       0.0521
    245 H           1.4383    7.0659   -0.6651 H      41  UNL41       0.0521
    246 H           0.9555    4.9730    1.1973 H      41  UNL41       0.2090
    247 O           3.9865    5.9891    2.4838 O.3    42  UNL42      -0.3982
    248 C           2.7699    5.6735    1.8321 C.3    42  UNL42       0.0330
    249 H           2.1227    6.5539    1.8203 H      42  UNL42       0.0521
    250 H           2.2765    4.8523    2.3576 H      42  UNL42       0.0521
    251 H           2.9856    5.3687    0.8053 H      42  UNL42       0.0521
    252 H           3.7634    6.2557    3.3920 H      42  UNL42       0.2090
    253 O           0.8851    2.8666    1.6519 O.3    43  UNL43      -0.3982
    254 C           1.3665    4.1955    1.7347 C.3    43  UNL43       0.0330
    255 H           0.6521    4.8090    2.2891 H      43  UNL43       0.0521
    256 H           1.5040    4.5974    0.7279 H      43  UNL43       0.0521
    257 H           2.3255    4.1940    2.2581 H      43  UNL43       0.0521
    258 H           0.0339    2.8998    1.1830 H      43  UNL43       0.2090
    259 O           3.9026    7.0207    0.1188 O.3    44  UNL44      -0.3982
    260 C           2.7915    7.8512   -0.1644 C.3    44  UNL44       0.0330
    261 H           3.1369    8.8695   -0.3593 H      44  UNL44       0.0521
    262 H           2.1045    7.8443    0.6852 H      44  UNL44       0.0521
    263 H           2.2775    7.4676   -1.0489 H      44  UNL44       0.0521
    264 H           4.3384    7.3856    0.9077 H      44  UNL44       0.2090
    265 O           0.1696    8.2972    1.9857 O.3    45  UNL45      -0.3982
    266 C           1.5588    8.0243    1.9729 C.3    45  UNL45       0.0330
    267 H           1.7478    7.1185    1.3915 H      45  UNL45       0.0521
    268 H           1.9147    7.8933    2.9976 H      45  UNL45       0.0521
    269 H           2.0819    8.8658    1.5126 H      45  UNL45       0.0521
    270 H          -0.2678    7.5336    2.3995 H      45  UNL45       0.2090
    271 O           2.2618    9.7499    4.8821 O.3    46  UNL46      -0.3982
    272 C           0.8948    9.3938    4.7883 C.3    46  UNL46       0.0330
    273 H           0.2743   10.2730    4.9787 H      46  UNL46       0.0521
    274 H           0.6703    8.6114    5.5174 H      46  UNL46       0.0521
    275 H           0.6934    9.0194    3.7819 H      46  UNL46       0.0521
    276 H           2.4102   10.0781    5.7853 H      46  UNL46       0.2090
    277 O           3.9330    9.2745    0.1048 O.3    47  UNL47      -0.3982
    278 C           2.7437    9.9956   -0.1598 C.3    47  UNL47       0.0330
    279 H           2.9873   11.0428   -0.3557 H      47  UNL47       0.0521
    280 H           2.0727    9.9212    0.6994 H      47  UNL47       0.0521
    281 H           2.2561    9.5667   -1.0384 H      47  UNL47       0.0521
    282 H           4.3431    9.6777    0.8889 H      47  UNL47       0.2090
    283 O           4.1928    9.8316    2.2043 O.3    48  UNL48      -0.3982
    284 C           2.8189   10.1673    2.1390 C.3    48  UNL48       0.0330
    285 H           2.2160    9.2830    2.3599 H      48  UNL48       0.0521
    286 H           2.5818   10.5430    1.1407 H      48  UNL48       0.0521
    287 H           2.6073   10.9437    2.8779 H      48  UNL48       0.0521
    288 H           4.3502    9.1412    1.5380 H      48  UNL48       0.2090
    289 O           4.2716    9.9471    3.8648 O.3    49  UNL49      -0.3982
    290 C           2.9221    9.5640    4.0562 C.3    49  UNL49       0.0330
    291 H           2.4771    9.3007    3.0934 H      49  UNL49       0.0521
    292 H           2.3694   10.3892    4.5117 H      49  UNL49       0.0521
    293 H           2.8897    8.6966    4.7196 H      49  UNL49       0.0521
    294 H           4.2684   10.7183    3.2725 H      49  UNL49       0.2090
    295 O           2.1867   12.2908    0.2274 O.3    50  UNL50      -0.3982
    296 C           0.8957   11.7723   -0.0351 C.3    50  UNL50       0.0330
    297 H           0.1836   12.1836    0.6847 H      50  UNL50       0.0521
    298 H           0.9176   10.6824    0.0401 H      50  UNL50       0.0521
    299 H           0.5961   12.0597   -1.0457 H      50  UNL50       0.0521
    300 H           2.4253   12.0198    1.1303 H      50  UNL50       0.2090
    301 O           3.8732   11.3516    1.6200 O.3    51  UNL51      -0.3982
    302 C           2.8312   12.0955    2.2242 C.3    51  UNL51       0.0330
    303 H           2.0239   11.4205    2.5190 H      51  UNL51       0.0521
    304 H           2.4576   12.8409    1.5179 H      51  UNL51       0.0521
    305 H           3.2228   12.6005    3.1103 H      51  UNL51       0.0521
    306 H           3.4959   10.9151    0.8372 H      51  UNL51       0.2090
    307 O           2.2017   14.1329    3.8184 O.3    52  UNL52      -0.3982
    308 C           0.7884   14.0554    3.8524 C.3    52  UNL52       0.0330
    309 H           0.3757   15.0294    4.1268 H      52  UNL52       0.0521
    310 H           0.4816   13.2998    4.5797 H      52  UNL52       0.0521
    311 H           0.4241   13.7736    2.8618 H      52  UNL52       0.0521
    312 H           2.4956   14.3845    4.7104 H      52  UNL52       0.2090
    313 O           4.1692   13.9913    0.4006 O.3    53  UNL53      -0.3982
    314 C           2.7805   13.7634    0.2449 C.3    53  UNL53       0.0330
    315 H           2.6230   12.8577   -0.3460 H      53  UNL53       0.0521
    316 H           2.3234   14.6211   -0.2543 H      53  UNL53       0.0521
    317 H           2.3287   13.6354    1.2314 H      53  UNL53       0.0521
    318 H           4.5423   14.1010   -0.4906 H      53  UNL53       0.2090
    319 O           4.0338   13.6150    2.0605 O.3    54  UNL54      -0.3982
    320 C           2.7182   14.1267    2.1692 C.3    54  UNL54       0.0330
    321 H           2.0507   13.3430    2.5360 H      54  UNL54       0.0521
    322 H           2.3813   14.4788    1.1912 H      54  UNL54       0.0521
    323 H           2.7187   14.9613    2.8742 H      54  UNL54       0.0521
    324 H           4.0019   12.8765    1.4288 H      54  UNL54       0.2090
    325 O           2.5835   14.8756    4.1042 O.3    55  UNL55      -0.3982
    326 C           2.8126   13.4902    3.9235 C.3    55  UNL55       0.0330
    327 H           2.7125   12.9753    4.8822 H      55  UNL55       0.0521
    328 H           3.8153   13.3358    3.5177 H      55  UNL55       0.0521
    329 H           2.0734   13.0964    3.2220 H      55  UNL55       0.0521
    330 H           3.2540   15.1967    4.7310 H      55  UNL55       0.2090
    331 O           4.0338   15.6894   -0.1360 O.3    56  UNL56      -0.3982
    332 C           2.6386   15.9062   -0.0318 C.3    56  UNL56       0.0330
    333 H           2.4535   16.8585    0.4715 H      56  UNL56       0.0521
    334 H           2.1831   15.0890    0.5327 H      56  UNL56       0.0521
    335 H           2.2079   15.9373   -1.0354 H      56  UNL56       0.0521
    336 H           4.3878   15.6667    0.7694 H      56  UNL56       0.2090
    337 O           3.8242   15.3758    1.5376 O.3    57  UNL57      -0.3982
    338 C           3.0264   16.2977    2.2574 C.3    57  UNL57       0.0330
    339 H           2.4675   15.7690    3.0336 H      57  UNL57       0.0521
    340 H           2.3366   16.7965    1.5723 H      57  UNL57       0.0521
    341 H           3.6764   17.0424    2.7228 H      57  UNL57       0.0521
    342 H           3.2204   14.7280    1.1362 H      57  UNL57       0.2090
    343 O           0.4840   16.7813    5.0222 O.3    58  UNL58      -0.3982
    344 C           1.2597   15.5991    4.9502 C.3    58  UNL58       0.0330
    345 H           1.9659   15.5742    5.7839 H      58  UNL58       0.0521
    346 H           1.7996   15.5739    4.0005 H      58  UNL58       0.0521
    347 H           0.5954   14.7340    5.0122 H      58  UNL58       0.0521
    348 H           1.1003   17.5313    4.9647 H      58  UNL58       0.2090
    349 O           4.0996   18.1977   -0.1703 O.3    59  UNL59      -0.3982
    350 C           2.7141   18.0835    0.0975 C.3    59  UNL59       0.0330
    351 H           2.5652   17.5003    1.0097 H      59  UNL59       0.0521
    352 H           2.2184   17.5951   -0.7449 H      59  UNL59       0.0521
    353 H           2.2951   19.0831    0.2343 H      59  UNL59       0.0521
    354 H           4.4434   17.2956   -0.2870 H      59  UNL59       0.2090
    355 O           4.1108   17.9157    2.0887 O.3    60  UNL60      -0.3982
    356 C           2.7483   18.2885    1.9932 C.3    60  UNL60       0.0330
    357 H           2.1174   17.4107    2.1531 H      60  UNL60       0.0521
    358 H           2.5547   18.7147    1.0059 H      60  UNL60       0.0521
    359 H           2.5300   19.0359    2.7595 H      60  UNL60       0.0521
    360 H           4.2747   17.2522    1.3970 H      60  UNL60       0.2090
    361 O           4.0350   18.2957    3.3509 O.3    61  UNL61      -0.3982
    362 C           2.8294   18.2420    4.0913 C.3    61  UNL61       0.0330
    363 H           3.0180   17.7791    5.0632 H      61  UNL61       0.0521
    364 H           2.0865   17.6626    3.5378 H      61  UNL61       0.0521
    365 H           2.4583   19.2586    4.2403 H      61  UNL61       0.0521
    366 H           4.3400   17.3798    3.2346 H      61  UNL61       0.2090
    367 O           6.4909    0.0562    0.1776 O.3    62  UNL62      -0.3982
    368 C           5.1060   -0.2302    0.2446 C.3    62  UNL62       0.0330
    369 H           4.9564   -1.3127    0.2442 H      62  UNL62       0.0521
    370 H           4.5983    0.2189   -0.6124 H      62  UNL62       0.0521
    371 H           4.7003    0.1912    1.1674 H      62  UNL62       0.0521
    372 H           6.8226   -0.3298   -0.6510 H      62  UNL62       0.2090
    373 O           6.3107   -0.0410    1.4318 O.3    63  UNL63      -0.3982
    374 C           5.0210   -0.2776    1.9658 C.3    63  UNL63       0.0330
    375 H           4.5760    0.6699    2.2796 H      63  UNL63       0.0521
    376 H           5.0977   -0.9565    2.8186 H      63  UNL63       0.0521
    377 H           4.3954   -0.7338    1.1949 H      63  UNL63       0.0521
    378 H           6.8425    0.3637    2.1381 H      63  UNL63       0.2090
    379 O           6.0463   -1.1092    3.5791 O.3    64  UNL64      -0.3982
    380 C           5.2274   -0.2479    4.3485 C.3    64  UNL64       0.0330
    381 H           4.3729    0.0756    3.7490 H      64  UNL64       0.0521
    382 H           5.8097    0.6190    4.6699 H      64  UNL64       0.0521
    383 H           4.8691   -0.7895    5.2271 H      64  UNL64       0.0521
    384 H           6.3491   -0.6013    2.8071 H      64  UNL64       0.2090
    385 O           6.1559    1.6662   -0.5070 O.3    65  UNL65      -0.3982
    386 C           5.1700    1.7159    0.5079 C.3    65  UNL65       0.0330
    387 H           4.7708    0.7131    0.6788 H      65  UNL65       0.0521
    388 H           4.3673    2.3924    0.2043 H      65  UNL65       0.0521
    389 H           5.6265    2.0859    1.4289 H      65  UNL65       0.0521
    390 H           5.7216    1.3345   -1.3113 H      65  UNL65       0.2090
    391 O           6.3720    1.3902    1.7702 O.3    66  UNL66      -0.3982
    392 C           5.0075    1.6000    2.0840 C.3    66  UNL66       0.0330
    393 H           4.7495    2.6476    1.9098 H      66  UNL66       0.0521
    394 H           4.8289    1.3387    3.1299 H      66  UNL66       0.0521
    395 H           4.3934    0.9642    1.4419 H      66  UNL66       0.0521
    396 H           6.8918    1.9672    2.3553 H      66  UNL66       0.2090
    397 O           4.3827    3.9204    3.4759 O.3    67  UNL67      -0.3982
    398 C           2.9705    3.8274    3.4387 C.3    67  UNL67       0.0330
    399 H           2.5352    4.8195    3.5824 H      67  UNL67       0.0521
    400 H           2.6283    3.1502    4.2250 H      67  UNL67       0.0521
    401 H           2.6657    3.4357    2.4654 H      67  UNL67       0.0521
    402 H           4.6231    4.2706    4.3506 H      67  UNL67       0.2090
    403 O           6.2878    3.9942   -0.3858 O.3    68  UNL68      -0.3982
    404 C           4.9976    3.4786   -0.1138 C.3    68  UNL68       0.0330
    405 H           4.2829    4.3021   -0.0408 H      68  UNL68       0.0521
    406 H           5.0190    2.9165    0.8230 H      68  UNL68       0.0521
    407 H           4.7018    2.8135   -0.9285 H      68  UNL68       0.0521
    408 H           6.5230    4.5802    0.3538 H      68  UNL68       0.2090
    409 O           6.5018    3.4264    1.6621 O.3    69  UNL69      -0.3982
    410 C           5.1728    3.8989    1.7839 C.3    69  UNL69       0.0330
    411 H           5.1847    4.9631    2.0323 H      69  UNL69       0.0521
    412 H           4.6557    3.3372    2.5656 H      69  UNL69       0.0521
    413 H           4.6558    3.7548    0.8323 H      69  UNL69       0.0521
    414 H           6.9350    3.5672    2.5212 H      69  UNL69       0.2090
    415 O           6.1903    3.6490    4.4029 O.3    70  UNL70      -0.3982
    416 C           4.7987    3.6266    4.1433 C.3    70  UNL70       0.0330
    417 H           4.5914    2.9360    3.3221 H      70  UNL70       0.0521
    418 H           4.4596    4.6321    3.8824 H      70  UNL70       0.0521
    419 H           4.2752    3.2894    5.0410 H      70  UNL70       0.0521
    420 H           6.6279    3.9519    3.5891 H      70  UNL70       0.2090
    421 O           4.8039    4.0800    2.6003 O.3    71  UNL71      -0.3982
    422 C           3.4012    4.0562    2.4100 C.3    71  UNL71       0.0330
    423 H           2.9787    3.1840    2.9151 H      71  UNL71       0.0521
    424 H           3.1783    4.0151    1.3411 H      71  UNL71       0.0521
    425 H           2.9695    4.9654    2.8352 H      71  UNL71       0.0521
    426 H           5.1586    3.2616    2.2132 H      71  UNL71       0.2090
    427 O           6.3679    5.9026    1.6212 O.3    72  UNL72      -0.3982
    428 C           4.9790    5.8425    1.8894 C.3    72  UNL72       0.0330
    429 H           4.6368    6.8110    2.2626 H      72  UNL72       0.0521
    430 H           4.7836    5.0644    2.6312 H      72  UNL72       0.0521
    431 H           4.4486    5.6028    0.9648 H      72  UNL72       0.0521
    432 H           6.8117    6.1168    2.4594 H      72  UNL72       0.2090
    433 O           2.6476    6.4849    5.4457 O.3    73  UNL73      -0.3982
    434 C           3.6174    5.8223    4.6553 C.3    73  UNL73       0.0330
    435 H           3.1627    5.4960    3.7166 H      73  UNL73       0.0521
    436 H           4.0077    4.9606    5.2023 H      73  UNL73       0.0521
    437 H           4.4343    6.5151    4.4404 H      73  UNL73       0.0521
    438 H           1.9359    5.8456    5.6201 H      73  UNL73       0.2090
    439 O           6.3649    8.3262    0.2763 O.3    74  UNL74      -0.3982
    440 C           5.0096    7.9593    0.0946 C.3    74  UNL74       0.0330
    441 H           4.9000    6.8819    0.2410 H      74  UNL74       0.0521
    442 H           4.6883    8.2354   -0.9127 H      74  UNL74       0.0521
    443 H           4.3968    8.4886    0.8280 H      74  UNL74       0.0521
    444 H           6.8837    7.8412   -0.3879 H      74  UNL74       0.2090
    445 O           3.9643    8.4526    2.7119 O.3    75  UNL75      -0.3982
    446 C           3.2470    7.6728    1.7728 C.3    75  UNL75       0.0330
    447 H           3.0118    8.2815    0.8962 H      75  UNL75       0.0521
    448 H           2.3262    7.3043    2.2315 H      75  UNL75       0.0521
    449 H           3.8651    6.8245    1.4695 H      75  UNL75       0.0521
    450 H           3.3910    9.1971    2.9623 H      75  UNL75       0.2090
    451 O           6.4857    5.8785    5.1141 O.3    76  UNL76      -0.3982
    452 C           5.0899    5.6666    5.0077 C.3    76  UNL76       0.0330
    453 H           4.8092    5.6042    3.9534 H      76  UNL76       0.0521
    454 H           4.5577    6.4905    5.4893 H      76  UNL76       0.0521
    455 H           4.8338    4.7291    5.5068 H      76  UNL76       0.0521
    456 H           6.6826    6.7169    4.6625 H      76  UNL76       0.2090
    457 O           6.4216    9.9495   -0.3396 O.3    77  UNL77      -0.3982
    458 C           5.1136   10.0050    0.1996 C.3    77  UNL77       0.0330
    459 H           4.7493    8.9905    0.3796 H      77  UNL77       0.0521
    460 H           4.4521   10.5226   -0.4994 H      77  UNL77       0.0521
    461 H           5.1418   10.5527    1.1445 H      77  UNL77       0.0521
    462 H           6.3648    9.4582   -1.1768 H      77  UNL77       0.2090
    463 O           6.1768   10.5054    2.3554 O.3    78  UNL78      -0.3982
    464 C           5.1544    9.7744    1.7036 C.3    78  UNL78       0.0330
    465 H           4.3238   10.4428    1.4635 H      78  UNL78       0.0521
    466 H           4.8102    8.9676    2.3552 H      78  UNL78       0.0521
    467 H           5.5552    9.3486    0.7808 H      78  UNL78       0.0521
    468 H           5.7917   10.8709    3.1701 H      78  UNL78       0.2090
    469 O           6.4075    9.7556    4.0332 O.3    79  UNL79      -0.3982
    470 C           5.1375   10.3789    4.0894 C.3    79  UNL79       0.0330
    471 H           4.5844   10.0038    4.9540 H      79  UNL79       0.0521
    472 H           4.5856   10.1669    3.1704 H      79  UNL79       0.0521
    473 H           5.2755   11.4582    4.1881 H      79  UNL79       0.0521
    474 H           6.2529    8.7996    3.9456 H      79  UNL79       0.2090
    475 O           4.5998   11.9373    0.2849 O.3    80  UNL80      -0.3982
    476 C           3.1909   12.0672    0.2346 C.3    80  UNL80       0.0330
    477 H           2.7269   11.2039    0.7180 H      80  UNL80       0.0521
    478 H           2.8671   12.1325   -0.8070 H      80  UNL80       0.0521
    479 H           2.8990   12.9781    0.7624 H      80  UNL80       0.0521
    480 H           4.8286   11.1209   -0.1912 H      80  UNL80       0.2090
    481 O           6.3696   12.2971    1.5863 O.3    81  UNL81      -0.3982
    482 C           5.1282   11.6925    1.8992 C.3    81  UNL81       0.0330
    483 H           4.4639   12.4341    2.3498 H      81  UNL81       0.0521
    484 H           5.2901   10.8636    2.5926 H      81  UNL81       0.0521
    485 H           4.6763   11.3126    0.9799 H      81  UNL81       0.0521
    486 H           6.7464   12.6243    2.4209 H      81  UNL81       0.2090
    487 O           4.5590   14.1812    4.3573 O.3    82  UNL82      -0.3982
    488 C           3.2672   14.2027    3.7784 C.3    82  UNL82       0.0330
    489 H           3.0066   15.2280    3.5044 H      82  UNL82       0.0521
    490 H           2.5402   13.8092    4.4930 H      82  UNL82       0.0521
    491 H           3.2689   13.5776    2.8824 H      82  UNL82       0.0521
    492 H           4.5264   14.7441    5.1496 H      82  UNL82       0.2090
    493 O           6.2332   13.4265    0.1604 O.3    83  UNL83      -0.3982
    494 C           5.0238   14.1624    0.1788 C.3    83  UNL83       0.0330
    495 H           4.2138   13.5440   -0.2159 H      83  UNL83       0.0521
    496 H           5.1362   15.0647   -0.4273 H      83  UNL83       0.0521
    497 H           4.7951   14.4445    1.2092 H      83  UNL83       0.0521
    498 H           6.4099   13.1904   -0.7661 H      83  UNL83       0.2090
    499 O           6.4111   14.3762    1.8126 O.3    84  UNL84      -0.3982
    500 C           5.1817   13.6745    1.8404 C.3    84  UNL84       0.0330
    501 H           4.3567   14.3863    1.9248 H      84  UNL84       0.0521
    502 H           5.1725   12.9874    2.6900 H      84  UNL84       0.0521
    503 H           5.0761   13.1059    0.9136 H      84  UNL84       0.0521
    504 H           6.4766   14.8710    2.6471 H      84  UNL84       0.2090
    505 O           5.6454   14.2591    4.9542 O.3    85  UNL85      -0.3982
    506 C           5.0252   13.5369    3.9062 C.3    85  UNL85       0.0330
    507 H           5.7274   13.4213    3.0768 H      85  UNL85       0.0521
    508 H           4.1339   14.0729    3.5709 H      85  UNL85       0.0521
    509 H           4.7366   12.5505    4.2767 H      85  UNL85       0.0521
    510 H           5.8901   15.1292    4.5958 H      85  UNL85       0.2090
    511 O           6.3405   16.0539    0.3945 O.3    86  UNL86      -0.3982
    512 C           4.9485   16.0352    0.1367 C.3    86  UNL86       0.0330
    513 H           4.5484   15.0437    0.3627 H      86  UNL86       0.0521
    514 H           4.7680   16.2824   -0.9123 H      86  UNL86       0.0521
    515 H           4.4594   16.7767    0.7728 H      86  UNL86       0.0521
    516 H           6.7471   15.3863   -0.1840 H      86  UNL86       0.2090
    517 O           6.2955   16.5597    2.0860 O.3    87  UNL87      -0.3982
    518 C           5.1826   15.7620    1.7261 C.3    87  UNL87       0.0330
    519 H           4.3097   16.4012    1.5717 H      87  UNL87       0.0521
    520 H           4.9812   15.0372    2.5187 H      87  UNL87       0.0521
    521 H           5.4110   15.2309    0.7991 H      87  UNL87       0.0521
    522 H           6.0633   17.0184    2.9114 H      87  UNL87       0.2090
    523 O           2.6017   16.3969    4.0364 O.3    88  UNL88      -0.3982
    524 C           3.9482   16.0256    3.8047 C.3    88  UNL88       0.0330
    525 H           4.0236   14.9364    3.7564 H      88  UNL88       0.0521
    526 H           4.5770   16.4096    4.6117 H      88  UNL88       0.0521
    527 H           4.2764   16.4539    2.8547 H      88  UNL88       0.0521
    528 H           2.3387   16.0027    4.8855 H      88  UNL88       0.2090
    529 O           6.5482   18.0219    0.2727 O.3    89  UNL89      -0.3982
    530 C           5.2117   18.0394   -0.1940 C.3    89  UNL89       0.0330
    531 H           4.5368   17.7637    0.6201 H      89  UNL89       0.0521
    532 H           5.1054   17.3362   -1.0237 H      89  UNL89       0.0521
    533 H           4.9693   19.0469   -0.5400 H      89  UNL89       0.0521
    534 H           6.7343   17.1158    0.5727 H      89  UNL89       0.2090
    535 O           5.9042   17.3752    1.3156 O.3    90  UNL90      -0.3982
    536 C           5.3312   18.3878    2.1222 C.3    90  UNL90       0.0330
    537 H           5.0377   17.9647    3.0861 H      90  UNL90       0.0521
    538 H           4.4588   18.8081    1.6159 H      90  UNL90       0.0521
    539 H           6.0711   19.1755    2.2826 H      90  UNL90       0.0521
    540 H           5.2248   16.6909    1.1905 H      90  UNL90       0.2090
    541 O           5.6448   19.0183    3.8425 O.3    91  UNL91      -0.3982
    542 C           5.2043   17.6966    4.0944 C.3    91  UNL91       0.0330
    543 H           5.8352   17.2413    4.8619 H      91  UNL91       0.0521
    544 H           5.2553   17.1127    3.1722 H      91  UNL91       0.0521
    545 H           4.1707   17.7276    4.4467 H      91  UNL91       0.0521
    546 H           6.5642   18.9587    3.5315 H      91  UNL91       0.2090
    547 O           8.8210   -0.2632   -0.2329 O.3    92  UNL92      -0.3982
    548 C           7.4965   -0.1617    0.2570 C.3    92  UNL92       0.0330
    549 H           7.1116   -1.1601    0.4790 H      92  UNL92       0.0521
    550 H           6.8666    0.3252   -0.4915 H      92  UNL92       0.0521
    551 H           7.5007    0.4365    1.1712 H      92  UNL92       0.0521
    552 H           8.7855   -0.7989   -1.0436 H      92  UNL92       0.2090
    553 O           8.6426    0.1259    2.4145 O.3    93  UNL93      -0.3982
    554 C           7.5134   -0.3273    1.6906 C.3    93  UNL93       0.0330
    555 H           6.8826    0.5251    1.4265 H      93  UNL93       0.0521
    556 H           6.9491   -1.0367    2.3008 H      93  UNL93       0.0521
    557 H           7.8521   -0.8237    0.7782 H      93  UNL93       0.0521
    558 H           8.3108    0.5616    3.2180 H      93  UNL93       0.2090
    559 O           8.2122    0.3321    4.8059 O.3    94  UNL94      -0.3982
    560 C           7.3590   -0.4532    3.9936 C.3    94  UNL94       0.0330
    561 H           7.9605   -1.0650    3.3167 H      94  UNL94       0.0521
    562 H           6.6972    0.2004    3.4202 H      94  UNL94       0.0521
    563 H           6.7592   -1.1043    4.6338 H      94  UNL94       0.0521
    564 H           8.7313    0.8991    4.2104 H      94  UNL94       0.2090
    565 O           8.4701    1.7181    0.7739 O.3    95  UNL95      -0.3982
    566 C           7.2994    1.8813   -0.0054 C.3    95  UNL95       0.0330
    567 H           6.6893    0.9768    0.0579 H      95  UNL95       0.0521
    568 H           7.5764    2.0747   -1.0446 H      95  UNL95       0.0521
    569 H           6.7304    2.7298    0.3816 H      95  UNL95       0.0521
    570 H           8.9539    0.9586    0.4070 H      95  UNL95       0.2090
    571 O           8.7295    1.7413    2.4282 O.3    96  UNL96      -0.3982
    572 C           7.5091    1.5699    1.7312 C.3    96  UNL96       0.0330
    573 H           7.0928    2.5480    1.4777 H      96  UNL96       0.0521
    574 H           6.8064    1.0138    2.3565 H      96  UNL96       0.0521
    575 H           7.6999    1.0085    0.8136 H      96  UNL96       0.0521
    576 H           8.5286    2.2421    3.2371 H      96  UNL96       0.2090
    577 O           6.1264    4.2754    4.9728 O.3    97  UNL97      -0.3982
    578 C           5.8246    3.9616    3.6257 C.3    97  UNL97       0.0330
    579 H           4.9111    4.4809    3.3255 H      97  UNL97       0.0521
    580 H           5.6931    2.8817    3.5229 H      97  UNL97       0.0521
    581 H           6.6518    4.2876    2.9909 H      97  UNL97       0.0521
    582 H           5.3750    3.9745    5.5116 H      97  UNL97       0.2090
    583 O           8.4965    3.1803    0.1018 O.3    98  UNL98      -0.3982
    584 C           7.4420    4.1142    0.2444 C.3    98  UNL98       0.0330
    585 H           6.5140    3.5850    0.4748 H      98  UNL98       0.0521
    586 H           7.3296    4.6823   -0.6823 H      98  UNL98       0.0521
    587 H           7.6814    4.7984    1.0618 H      98  UNL98       0.0521
    588 H           8.2559    2.5872   -0.6302 H      98  UNL98       0.2090
    589 O           8.6497    4.2684    2.0435 O.3    99  UNL99      -0.3982
    590 C           7.4240    3.5880    1.8459 C.3    99  UNL99       0.0330
    591 H           6.6004    4.2044    2.2147 H      99  UNL99       0.0521
    592 H           7.4459    2.6340    2.3783 H      99  UNL99       0.0521
    593 H           7.2882    3.4035    0.7777 H      99  UNL99       0.0521
    594 H           8.7425    4.4180    2.9998 H      99  UNL99       0.2090
    595 O           8.4437    3.7822    4.7280 O.3   100  UNL100     -0.3982
    596 C           7.2791    3.5713    3.9511 C.3   100  UNL100      0.0330
    597 H           7.5501    3.5174    2.8938 H     100  UNL100      0.0521
    598 H           6.5761    4.3913    4.1167 H     100  UNL100      0.0521
    599 H           6.8153    2.6298    4.2545 H     100  UNL100      0.0521
    600 H           8.8330    4.6242    4.4365 H     100  UNL100      0.2090
    601 O           6.3495    6.6667   -0.3485 O.3   101  UNL101     -0.3982
    602 C           5.7411    5.4279   -0.0330 C.3   101  UNL101      0.0330
    603 H           4.6638    5.5693    0.0841 H     101  UNL101      0.0521
    604 H           6.1705    5.0352    0.8919 H     101  UNL101      0.0521
    605 H           5.9276    4.7230   -0.8466 H     101  UNL101      0.0521
    606 H           6.1672    7.2711    0.3911 H     101  UNL101      0.2090
    607 O           8.7547    5.9417    1.7570 O.3   102  UNL102     -0.3982
    608 C           7.3539    5.7590    1.8505 C.3   102  UNL102      0.0330
    609 H           6.8733    6.7186    2.0566 H     102  UNL102      0.0521
    610 H           7.1309    5.0484    2.6501 H     102  UNL102      0.0521
    611 H           6.9829    5.3645    0.9016 H     102  UNL102      0.0521
    612 H           9.0549    6.2922    2.6129 H     102  UNL102      0.2090
    613 O           7.5521    6.8572    4.1950 O.3   103  UNL103     -0.3982
    614 C           7.4981    5.4616    3.9625 C.3   103  UNL103      0.0330
    615 H           7.6927    4.9280    4.8962 H     103  UNL103      0.0521
    616 H           8.2431    5.1874    3.2116 H     103  UNL103      0.0521
    617 H           6.5023    5.2005    3.5970 H     103  UNL103      0.0521
    618 H           8.4467    7.0586    4.5183 H     103  UNL103      0.2090
    619 O           8.8039    7.6614   -0.0612 O.3   104  UNL104     -0.3982
    620 C           7.5197    8.0413    0.3981 C.3   104  UNL104      0.0330
    621 H           6.9134    7.1480    0.5676 H     104  UNL104      0.0521
    622 H           7.0413    8.6838   -0.3451 H     104  UNL104      0.0521
    623 H           7.6260    8.5903    1.3367 H     104  UNL104      0.0521
    624 H           8.6775    7.1767   -0.8946 H     104  UNL104      0.2090
    625 O           4.5553    7.6648    2.1114 O.3   105  UNL105     -0.3982
    626 C           5.9651    7.7915    2.1404 C.3   105  UNL105      0.0330
    627 H           6.2361    8.7599    2.5682 H     105  UNL105      0.0521
    628 H           6.3604    7.7061    1.1253 H     105  UNL105      0.0521
    629 H           6.3809    6.9929    2.7593 H     105  UNL105      0.0521
    630 H           4.2150    8.3863    1.5553 H     105  UNL105      0.2090
    631 O           6.6991    9.8368    4.8729 O.3   106  UNL106     -0.3982
    632 C           5.2972    9.6586    4.7885 C.3   106  UNL106      0.0330
    633 H           4.7943   10.5986    5.0291 H     106  UNL106      0.0521
    634 H           4.9856    8.8774    5.4861 H     106  UNL106      0.0521
    635 H           5.0377    9.3594    3.7703 H     106  UNL106      0.0521
    636 H           6.8989   10.1017    5.7870 H     106  UNL106      0.2090
    637 O           8.5219    9.6286   -0.5107 O.3   107  UNL107     -0.3982
    638 C           7.4696    9.9817    0.3681 C.3   107  UNL107      0.0330
    639 H           6.9192    9.0834    0.6585 H     107  UNL107      0.0521
    640 H           6.7999   10.6876   -0.1291 H     107  UNL107      0.0521
    641 H           7.8932   10.4508    1.2593 H     107  UNL107      0.0521
    642 H           8.1156    9.2151   -1.2913 H     107  UNL107      0.2090
    643 O           8.6432    9.9673    1.5307 O.3   108  UNL108     -0.3982
    644 C           7.2579    9.9551    1.8227 C.3   108  UNL108      0.0330
    645 H           6.9630   10.9234    2.2348 H     108  UNL108      0.0521
    646 H           7.0431    9.1605    2.5413 H     108  UNL108      0.0521
    647 H           6.7021    9.7695    0.9006 H     108  UNL108      0.0521
    648 H           9.1101   10.1339    2.3672 H     108  UNL108      0.2090
    649 O           8.8852    9.8697    4.0971 O.3   109  UNL109     -0.3982
    650 C           7.4809    9.9946    3.9671 C.3   109  UNL109      0.0330
    651 H           7.2102    9.9900    2.9084 H     109  UNL109      0.0521
    652 H           7.1524   10.9263    4.4342 H     109  UNL109      0.0521
    653 H           7.0013    9.1500    4.4673 H     109  UNL109      0.0521
    654 H           9.2831   10.6326    3.6440 H     109  UNL109      0.2090
    655 O           6.9194   11.9448   -0.1115 O.3   110  UNL110     -0.3982
    656 C           5.5078   11.8575   -0.1780 C.3   110  UNL110      0.0330
    657 H           5.0679   12.8077    0.1348 H     110  UNL110      0.0521
    658 H           5.1608   11.0512    0.4727 H     110  UNL110      0.0521
    659 H           5.2133   11.6437   -1.2082 H     110  UNL110      0.0521
    660 H           7.1505   12.1350    0.8137 H     110  UNL110      0.2090
    661 O           8.6254   11.4905    2.1387 O.3   111  UNL111     -0.3982
    662 C           7.2933   11.8297    1.7998 C.3   111  UNL111      0.0330
    663 H           7.2760   12.8153    1.3279 H     111  UNL111      0.0521
    664 H           6.6770   11.8351    2.7021 H     111  UNL111      0.0521
    665 H           6.9044   11.0863    1.1000 H     111  UNL111      0.0521
    666 H           8.9433   12.1674    2.7601 H     111  UNL111      0.2090
    667 O           6.7005   14.4493    3.4495 O.3   112  UNL112     -0.3982
    668 C           5.3977   14.2793    3.9769 C.3   112  UNL112      0.0330
    669 H           5.0998   15.1838    4.5131 H     112  UNL112      0.0521
    670 H           5.3867   13.4215    4.6536 H     112  UNL112      0.0521
    671 H           4.7018   14.1004    3.1539 H     112  UNL112      0.0521
    672 H           7.2954   14.6062    4.2025 H     112  UNL112      0.2090
    673 O           8.6454   14.1180    0.3142 O.3   113  UNL113     -0.3982
    674 C           7.2596   13.8624    0.1777 C.3   113  UNL113      0.0330
    675 H           7.0671   12.7983    0.3358 H     113  UNL113      0.0521
    676 H           6.9302   14.1587   -0.8211 H     113  UNL113      0.0521
    677 H           6.7157   14.4439    0.9258 H     113  UNL113      0.0521
    678 H           9.1015   13.5888   -0.3621 H     113  UNL113      0.2090
    679 O           8.7848   13.8770    1.5969 O.3   114  UNL114     -0.3982
    680 C           7.4032   13.8417    1.9043 C.3   114  UNL114      0.0330
    681 H           7.0624   14.8453    2.1705 H     114  UNL114      0.0521
    682 H           7.2317   13.1544    2.7363 H     114  UNL114      0.0521
    683 H           6.8529   13.4930    1.0273 H     114  UNL114      0.0521
    684 H           9.2468   14.1898    2.3933 H     114  UNL114      0.2090
    685 O           8.4783   13.6249    4.4318 O.3   115  UNL115     -0.3982
    686 C           7.1270   13.7077    4.0177 C.3   115  UNL115      0.0330
    687 H           7.0848   13.8563    2.9358 H     115  UNL115      0.0521
    688 H           6.6384   14.5401    4.5299 H     115  UNL115      0.0521
    689 H           6.6187   12.7755    4.2753 H     115  UNL115      0.0521
    690 H           8.9032   14.4655    4.1901 H     115  UNL115      0.2090
    691 O           7.7616   17.0396   -0.1736 O.3   116  UNL116     -0.3982
    692 C           7.9553   15.7049    0.2573 C.3   116  UNL116      0.0330
    693 H           8.2506   15.0856   -0.5933 H     116  UNL116      0.0521
    694 H           7.0291   15.3243    0.6947 H     116  UNL116      0.0521
    695 H           8.7461   15.6861    1.0108 H     116  UNL116      0.0521
    696 H           7.0548   17.0245   -0.8412 H     116  UNL116      0.2090
    697 O           8.6152   15.6411    2.5680 O.3   117  UNL117     -0.3982
    698 C           7.5670   15.6104    1.6168 C.3   117  UNL117      0.0330
    699 H           7.6274   16.4950    0.9780 H     117  UNL117      0.0521
    700 H           6.6049   15.5865    2.1342 H     117  UNL117      0.0521
    701 H           7.6705   14.7126    1.0029 H     117  UNL117      0.0521
    702 H           8.4969   16.4480    3.0975 H     117  UNL117      0.2090
    703 O           6.8934   16.1517    4.2738 O.3   118  UNL118     -0.3982
    704 C           5.5008   15.9097    4.1924 C.3   118  UNL118      0.0330
    705 H           5.3114   15.1014    3.4817 H     118  UNL118      0.0521
    706 H           4.9902   16.8202    3.8695 H     118  UNL118      0.0521
    707 H           5.1326   15.6184    5.1789 H     118  UNL118      0.0521
    708 H           7.1913   16.4081    3.3843 H     118  UNL118      0.2090
    709 O           7.9010   18.6522   -0.8984 O.3   119  UNL119     -0.3982
    710 C           7.6452   19.2591    0.3549 C.3   119  UNL119      0.0330
    711 H           8.0095   18.6109    1.1558 H     119  UNL119      0.0521
    712 H           6.5713   19.4266    0.4672 H     119  UNL119      0.0521
    713 H           8.1677   20.2176    0.3987 H     119  UNL119      0.0521
    714 H           7.4247   17.8045   -0.9078 H     119  UNL119      0.2090
    715 O           8.6511   17.4591    1.9280 O.3   120  UNL120     -0.3982
    716 C           7.4883   18.2095    2.2271 C.3   120  UNL120      0.0330
    717 H           6.6772   17.5315    2.5041 H     120  UNL120      0.0521
    718 H           7.2010   18.8012    1.3545 H     120  UNL120      0.0521
    719 H           7.7027   18.8786    3.0637 H     120  UNL120      0.0521
    720 H           8.4303   16.8752    1.1824 H     120  UNL120      0.2090
    721 O           8.1092   19.0744    4.0868 O.3   121  UNL121     -0.3982
    722 C           7.3038   17.9100    4.0888 C.3   121  UNL121      0.0330
    723 H           7.6298   17.2416    4.8896 H     121  UNL121      0.0521
    724 H           7.3875   17.4064    3.1227 H     121  UNL121      0.0521
    725 H           6.2635   18.1978    4.2582 H     121  UNL121      0.0521
    726 H           9.0257   18.7875    3.9344 H     121  UNL121      0.2090
    727 O          11.1297   -0.4159   -0.0990 O.3   122  UNL122     -0.3982
    728 C           9.8258   -0.0728    0.3331 C.3   122  UNL122      0.0330
    729 H           9.1883   -0.9601    0.3108 H     122  UNL122      0.0521
    730 H           9.4158    0.7001   -0.3215 H     122  UNL122      0.0521
    731 H           9.8793    0.3093    1.3552 H     122  UNL122      0.0521
    732 H          11.0504   -0.7514   -1.0082 H     122  UNL122      0.2090
    733 O          11.0123   -0.2738    1.5505 O.3   123  UNL123     -0.3982
    734 C           9.6473   -0.3638    1.9151 C.3   123  UNL123      0.0330
    735 H           9.3071    0.6016    2.2982 H     123  UNL123      0.0521
    736 H           9.5234   -1.1351    2.6791 H     123  UNL123      0.0521
    737 H           9.0607   -0.6304    1.0328 H     123  UNL123      0.0521
    738 H          11.5073   -0.0362    2.3530 H     123  UNL123      0.2090
    739 O          10.6522   -0.5612    3.2325 O.3   124  UNL124     -0.3982
    740 C           9.5695   -0.5206    4.1438 C.3   124  UNL124      0.0330
    741 H           8.7147   -0.0279    3.6739 H     124  UNL124      0.0521
    742 H           9.8688    0.0241    5.0426 H     124  UNL124      0.0521
    743 H           9.2945   -1.5427    4.4146 H     124  UNL124      0.0521
    744 H          10.8737    0.3594    3.0108 H     124  UNL124      0.2090
    745 O          10.6605    2.4037   -0.3501 O.3   125  UNL125     -0.3982
    746 C           9.6835    1.6641    0.3590 C.3   125  UNL125      0.0330
    747 H          10.1370    0.7580    0.7682 H     125  UNL125      0.0521
    748 H           8.8639    1.4019   -0.3146 H     125  UNL125      0.0521
    749 H           9.2980    2.2774    1.1768 H     125  UNL125      0.0521
    750 H          10.9839    1.8342   -1.0690 H     125  UNL125      0.2090
    751 O          11.0568    1.5002    1.6738 O.3   126  UNL126     -0.3982
    752 C           9.6807    1.6811    1.9533 C.3   126  UNL126      0.0330
    753 H           9.4369    2.7457    1.9145 H     126  UNL126      0.0521
    754 H           9.4536    1.2802    2.9441 H     126  UNL126      0.0521
    755 H           9.0927    1.1472    1.2031 H     126  UNL126      0.0521
    756 H          11.5529    1.9848    2.3554 H     126  UNL126      0.2090
    757 O           9.1668    3.7202    4.2180 O.3   127  UNL127     -0.3982
    758 C           7.9339    4.0104    3.5854 C.3   127  UNL127      0.0330
    759 H           7.3101    4.6058    4.2567 H     127  UNL127      0.0521
    760 H           7.4257    3.0773    3.3302 H     127  UNL127      0.0521
    761 H           8.1280    4.5784    2.6725 H     127  UNL127      0.0521
    762 H           8.9625    3.2161    5.0241 H     127  UNL127      0.2090
    763 O          11.0172    4.2836    0.2235 O.3   128  UNL128     -0.3982
    764 C          10.0067    3.4277   -0.2772 C.3   128  UNL128      0.0330
    765 H           9.1429    4.0228   -0.5839 H     128  UNL128      0.0521
    766 H           9.7149    2.7147    0.4977 H     128  UNL128      0.0521
    767 H          10.3971    2.8843   -1.1408 H     128  UNL128      0.0521
    768 H          10.6418    4.7520    0.9885 H     128  UNL128      0.2090
    769 O          10.7481    3.1181    2.1914 O.3   129  UNL129     -0.3982
    770 C           9.5302    3.7442    1.8322 C.3   129  UNL129      0.0330
    771 H           9.6953    4.8166    1.7017 H     129  UNL129      0.0521
    772 H           8.7864    3.5717    2.6139 H     129  UNL129      0.0521
    773 H           9.1740    3.3156    0.8925 H     129  UNL129      0.0521
    774 H          11.0394    3.5187    3.0282 H     129  UNL129      0.2090
    775 O          10.6048    4.6818    3.5685 O.3   130  UNL130     -0.3982
    776 C          10.2025    3.4961    4.2292 C.3   130  UNL130      0.0330
    777 H           9.5283    2.9285    3.5830 H     130  UNL130      0.0521
    778 H           9.6985    3.7521    5.1643 H     130  UNL130      0.0521
    779 H          11.0872    2.8935    4.4479 H     130  UNL130      0.0521
    780 H           9.7992    5.1955    3.3877 H     130  UNL130      0.2090
    781 O           8.6946    5.9367   -0.8362 O.3   131  UNL131     -0.3982
    782 C           7.9804    5.5965    0.3379 C.3   131  UNL131      0.0330
    783 H           6.9824    5.2418    0.0685 H     131  UNL131      0.0521
    784 H           7.9046    6.4728    0.9862 H     131  UNL131      0.0521
    785 H           8.5172    4.8029    0.8630 H     131  UNL131      0.0521
    786 H           8.1945    6.6425   -1.2804 H     131  UNL131      0.2090
    787 O          11.0942    5.9895    2.3640 O.3   132  UNL132     -0.3982
    788 C           9.7390    5.7874    2.0075 C.3   132  UNL132      0.0330
    789 H           9.6863    5.3265    1.0180 H     132  UNL132      0.0521
    790 H           9.2157    6.7467    2.0027 H     132  UNL132      0.0521
    791 H           9.2737    5.1248    2.7410 H     132  UNL132      0.0521
    792 H          11.4803    6.5808    1.6956 H     132  UNL132      0.2090
    793 O          10.3001    5.3574    4.9743 O.3   133  UNL133     -0.3982
    794 C           9.8294    6.1581    3.9058 C.3   133  UNL133      0.0330
    795 H           8.9854    5.6611    3.4211 H     133  UNL133      0.0521
    796 H          10.6356    6.3163    3.1853 H     133  UNL133      0.0521
    797 H           9.5030    7.1227    4.3016 H     133  UNL133      0.0521
    798 H          10.5825    4.5089    4.5926 H     133  UNL133      0.2090
    799 O          10.2899    4.8224   -0.4393 O.3   134  UNL134     -0.3982
    800 C          10.1663    6.1097    0.1369 C.3   134  UNL134      0.0330
    801 H          10.8490    6.1971    0.9857 H     134  UNL134      0.0521
    802 H           9.1362    6.2649    0.4666 H     134  UNL134      0.0521
    803 H          10.4234    6.8610   -0.6135 H     134  UNL134      0.0521
    804 H          10.0556    4.1774    0.2496 H     134  UNL134      0.2090
    805 O           8.9424    7.9362    1.7194 O.3   135  UNL135     -0.3982
    806 C           7.6076    7.6420    2.0884 C.3   135  UNL135      0.0330
    807 H           7.0035    8.5508    2.0293 H     135  UNL135      0.0521
    808 H           7.5892    7.2450    3.1063 H     135  UNL135      0.0521
    809 H           7.2054    6.8944    1.4008 H     135  UNL135      0.0521
    810 H           9.2723    8.6018    2.3469 H     135  UNL135      0.2090
    811 O           8.8816    8.9817    4.9521 O.3   136  UNL136     -0.3982
    812 C           7.6152    9.5920    4.7842 C.3   136  UNL136      0.0330
    813 H           7.7358   10.6772    4.7382 H     136  UNL136      0.0521
    814 H           6.9659    9.3220    5.6206 H     136  UNL136      0.0521
    815 H           7.1706    9.2371    3.8515 H     136  UNL136      0.0521
    816 H           9.2512    9.3156    5.7872 H     136  UNL136      0.2090
    817 O          10.9757   10.2391   -0.0221 O.3   137  UNL137     -0.3982
    818 C           9.6134    9.9035    0.1675 C.3   137  UNL137      0.0330
    819 H           9.5010    8.8164    0.1635 H     137  UNL137      0.0521
    820 H           9.0137   10.3454   -0.6320 H     137  UNL137      0.0521
    821 H           9.2808   10.2985    1.1303 H     137  UNL137      0.0521
    822 H          11.2422    9.8757   -0.8837 H     137  UNL137      0.2090
    823 O          11.0253    9.9414    1.9640 O.3   138  UNL138     -0.3982
    824 C           9.6258    9.7935    1.8097 C.3   138  UNL138      0.0330
    825 H           9.1662   10.7770    1.6836 H     138  UNL138      0.0521
    826 H           9.2118    9.2963    2.6902 H     138  UNL138      0.0521
    827 H           9.4283    9.1852    0.9239 H     138  UNL138      0.0521
    828 H          11.1695   10.4851    2.7572 H     138  UNL138      0.2090
    829 O          10.0461    9.0346    3.6822 O.3   139  UNL139     -0.3982
    830 C           9.9609   10.3916    4.0767 C.3   139  UNL139      0.0330
    831 H           9.9970   11.0322    3.1920 H     139  UNL139      0.0521
    832 H          10.7908   10.6301    4.7463 H     139  UNL139      0.0521
    833 H           9.0156   10.5507    4.6007 H     139  UNL139      0.0521
    834 H          10.8945    8.9240    3.2203 H     139  UNL139      0.2090
    835 O           9.4335   11.7742    0.3145 O.3   140  UNL140     -0.3982
    836 C           8.0578   12.0618    0.1439 C.3   140  UNL140      0.0330
    837 H           7.4608   11.2257    0.5166 H     140  UNL140      0.0521
    838 H           7.8483   12.2293   -0.9154 H     140  UNL140      0.0521
    839 H           7.8105   12.9635    0.7089 H     140  UNL140      0.0521
    840 H           9.6229   10.9698   -0.1980 H     140  UNL140      0.2090
    841 O          11.0061   11.9154    1.7677 O.3   141  UNL141     -0.3982
    842 C           9.5959   11.8405    1.8688 C.3   141  UNL141      0.0330
    843 H           9.1727   12.8472    1.8271 H     141  UNL141      0.0521
    844 H           9.3224   11.3574    2.8099 H     141  UNL141      0.0521
    845 H           9.2107   11.2508    1.0336 H     141  UNL141      0.0521
    846 H          11.3189   12.4441    2.5215 H     141  UNL141      0.2090
    847 O           8.1031   14.1779    5.0780 O.3   142  UNL142     -0.3982
    848 C           8.2655   14.1644    3.6716 C.3   142  UNL142      0.0330
    849 H           7.5712   14.8754    3.2169 H     142  UNL142      0.0521
    850 H           8.0742   13.1580    3.2914 H     142  UNL142      0.0521
    851 H           9.2907   14.4542    3.4296 H     142  UNL142      0.0521
    852 H           7.1846   13.9168    5.2620 H     142  UNL142      0.2090
    853 O          11.0197   13.9426   -0.0876 O.3   143  UNL143     -0.3982
    854 C           9.6461   14.0695    0.2311 C.3   143  UNL143      0.0330
    855 H           9.1882   13.0782    0.2752 H     143  UNL143      0.0521
    856 H           9.1497   14.6783   -0.5284 H     143  UNL143      0.0521
    857 H           9.5506   14.5561    1.2046 H     143  UNL143      0.0521
    858 H          11.0726   13.5078   -0.9557 H     143  UNL143      0.2090
    859 O          10.9297   14.2803    1.6864 O.3   144  UNL144     -0.3982
    860 C           9.6395   13.7324    1.8857 C.3   144  UNL144      0.0330
    861 H           8.9085   14.5404    1.9699 H     144  UNL144      0.0521
    862 H           9.6362   13.1274    2.7956 H     144  UNL144      0.0521
    863 H           9.3854   13.1018    1.0305 H     144  UNL144      0.0521
    864 H          11.1274   14.8345    2.4606 H     144  UNL144      0.2090
    865 O          10.8306   13.5376    4.0526 O.3   145  UNL145     -0.3982
    866 C           9.4432   13.7954    4.1671 C.3   145  UNL145      0.0330
    867 H           9.0014   13.8668    3.1702 H     145  UNL145      0.0521
    868 H           9.2892   14.7291    4.7134 H     145  UNL145      0.0521
    869 H           8.9732   12.9743    4.7136 H     145  UNL145      0.0521
    870 H          11.2202   14.2824    3.5637 H     145  UNL145      0.2090
    871 O          10.3881   14.9822    0.2703 O.3   146  UNL146     -0.3982
    872 C           9.9071   16.3106    0.1791 C.3   146  UNL146      0.0330
    873 H           8.8286   16.2973    0.0033 H     146  UNL146      0.0521
    874 H          10.4141   16.8272   -0.6395 H     146  UNL146      0.0521
    875 H          10.1147   16.8289    1.1182 H     146  UNL146      0.0521
    876 H          10.1899   14.5477   -0.5767 H     146  UNL146      0.2090
    877 O          11.0241   16.6886    1.6827 O.3   147  UNL147     -0.3982
    878 C           9.8901   15.8456    1.7708 C.3   147  UNL147      0.0330
    879 H           9.0371   16.4185    2.1429 H     147  UNL147      0.0521
    880 H          10.1054   15.0131    2.4450 H     147  UNL147      0.0521
    881 H           9.6589   15.4560    0.7767 H     147  UNL147      0.0521
    882 H          11.2050   17.0189    2.5792 H     147  UNL147      0.2090
    883 O           8.1896   17.1129    3.8750 O.3   148  UNL148     -0.3982
    884 C           7.8628   15.7357    3.8402 C.3   148  UNL148      0.0330
    885 H           7.5114   15.4186    4.8252 H     148  UNL148      0.0521
    886 H           8.7448   15.1583    3.5529 H     148  UNL148      0.0521
    887 H           7.0707   15.5770    3.1047 H     148  UNL148      0.0521
    888 H           8.8944   17.2226    4.5359 H     148  UNL148      0.2090
    889 O          10.2901   18.2623   -0.9605 O.3   149  UNL149     -0.3982
    890 C           9.7942   18.0606    0.3502 C.3   149  UNL149      0.0330
    891 H          10.5756   17.6170    0.9722 H     149  UNL149      0.0521
    892 H           8.9240   17.4007    0.3139 H     149  UNL149      0.0521
    893 H           9.5001   19.0249    0.7711 H     149  UNL149      0.0521
    894 H          10.5428   17.3898   -1.3077 H     149  UNL149      0.2090
    895 O          10.9709   18.5860    1.7373 O.3   150  UNL150     -0.3982
    896 C           9.6565   18.1356    2.0091 C.3   150  UNL150      0.0330
    897 H           9.6890   17.3512    2.7694 H     150  UNL150      0.0521
    898 H           9.2054   17.7501    1.0916 H     150  UNL150      0.0521
    899 H           9.0629   18.9746    2.3796 H     150  UNL150      0.0521
    900 H          11.4734   17.8203    1.4105 H     150  UNL150      0.2090
    901 O          11.0071   18.7185    3.7158 O.3   151  UNL151     -0.3982
    902 C          10.0087   17.7624    4.0219 C.3   151  UNL151      0.0330
    903 H           9.1245   17.9478    3.4069 H     151  UNL151      0.0521
    904 H           9.7497   17.8313    5.0812 H     151  UNL151      0.0521
    905 H          10.3958   16.7635    3.8079 H     151  UNL151      0.0521
    906 H          10.6349   19.5943    3.9157 H     151  UNL151      0.2090
    907 O          13.2360   -0.6206   -0.3197 O.3   152  UNL152     -0.3982
    908 C          12.0572    0.0421    0.0995 C.3   152  UNL152      0.0330
    909 H          11.5480   -0.5613    0.8551 H     152  UNL152      0.0521
    910 H          11.4010    0.1987   -0.7600 H     152  UNL152      0.0521
    911 H          12.3272    1.0092    0.5300 H     152  UNL152      0.0521
    912 H          12.9648   -1.4748   -0.6970 H     152  UNL152      0.2090
    913 O          13.1229    0.1087    2.6416 O.3   153  UNL153     -0.3982
    914 C          12.1187   -0.3610    1.7611 C.3   153  UNL153      0.0330
    915 H          11.6901    0.4817    1.2129 H     153  UNL153      0.0521
    916 H          11.3401   -0.8707    2.3338 H     153  UNL153      0.0521
    917 H          12.5663   -1.0631    1.0538 H     153  UNL153      0.0521
    918 H          12.6961    0.7291    3.2568 H     153  UNL153      0.2090
    919 O          12.1686    0.7388    4.1867 O.3   154  UNL154     -0.3982
    920 C          12.6159   -0.5989    4.0647 C.3   154  UNL154      0.0330
    921 H          12.9203   -0.7896    3.0326 H     154  UNL154      0.0521
    922 H          11.8110   -1.2806    4.3503 H     154  UNL154      0.0521
    923 H          13.4706   -0.7497    4.7282 H     154  UNL154      0.0521
    924 H          11.4103    0.8423    3.5869 H     154  UNL154      0.2090
    925 O          12.9477    0.9015   -0.2569 O.3   155  UNL155     -0.3982
    926 C          12.2733    1.9896    0.3479 C.3   155  UNL155      0.0330
    927 H          11.2683    1.6778    0.6432 H     155  UNL155      0.0521
    928 H          12.2155    2.8215   -0.3582 H     155  UNL155      0.0521
    929 H          12.8298    2.3045    1.2337 H     155  UNL155      0.0521
    930 H          12.4309    0.6444   -1.0394 H     155  UNL155      0.2090
    931 O          13.0523    2.1190    2.7782 O.3   156  UNL156     -0.3982
    932 C          12.2644    1.4153    1.8357 C.3   156  UNL156      0.0330
    933 H          11.7498    2.1272    1.1855 H     156  UNL156      0.0521
    934 H          11.5359    0.7928    2.3609 H     156  UNL156      0.0521
    935 H          12.9160    0.7792    1.2322 H     156  UNL156      0.0521
    936 H          12.4471    2.6744    3.2986 H     156  UNL156      0.2090
    937 O          11.6931   -0.1756    3.5723 O.3   157  UNL157     -0.3982
    938 C          10.4417    0.0575    4.1920 C.3   157  UNL157      0.0330
    939 H          10.2429   -0.7313    4.9217 H     157  UNL157      0.0521
    940 H           9.6557    0.0732    3.4331 H     157  UNL157      0.0521
    941 H          10.4721    1.0233    4.7018 H     157  UNL157      0.0521
    942 H          11.6358   -1.0389    3.1284 H     157  UNL157      0.2090
    943 O          13.3242    3.3585   -0.3820 O.3   158  UNL158     -0.3982
    944 C          12.2350    4.0712    0.1748 C.3   158  UNL158      0.0330
    945 H          11.5419    3.3697    0.6457 H     158  UNL158      0.0521
    946 H          11.7245    4.6315   -0.6123 H     158  UNL158      0.0521
    947 H          12.6132    4.7669    0.9275 H     158  UNL158      0.0521
    948 H          12.9579    2.7497   -1.0459 H     158  UNL158      0.2090
    949 O          13.2287    4.4270    2.3965 O.3   159  UNL159     -0.3982
    950 C          12.3804    3.6109    1.6099 C.3   159  UNL159      0.0330
    951 H          11.5036    4.1858    1.3016 H     159  UNL159      0.0521
    952 H          12.0716    2.7385    2.1907 H     159  UNL159      0.0521
    953 H          12.9271    3.2808    0.7234 H     159  UNL159      0.0521
    954 H          12.7166    4.7044    3.1752 H     159  UNL159      0.2090
    955 O          13.3212    3.4267    4.1145 O.3   160  UNL160     -0.3982
    956 C          12.0968    3.9893    3.6800 C.3   160  UNL160      0.0330
    957 H          11.8365    4.8362    4.3198 H     160  UNL160      0.0521
    958 H          11.3109    3.2313    3.7231 H     160  UNL160      0.0521
    959 H          12.2104    4.3350    2.6499 H     160  UNL160      0.0521
    960 H          13.1897    3.1291    5.0308 H     160  UNL160      0.2090
    961 O          11.4918    3.5503    2.2181 O.3   161  UNL161     -0.3982
    962 C          10.2361    4.2038    2.2413 C.3   161  UNL161      0.0330
    963 H           9.5262    3.6107    2.8231 H     161  UNL161      0.0521
    964 H           9.8708    4.3292    1.2191 H     161  UNL161      0.0521
    965 H          10.3548    5.1852    2.7064 H     161  UNL161      0.0521
    966 H          11.3549    2.6830    1.8002 H     161  UNL161      0.2090
    967 O          13.3698    5.4234    2.1662 O.3   162  UNL162     -0.3982
    968 C          12.0576    5.8218    1.8142 C.3   162  UNL162      0.0330
    969 H          11.7888    6.7245    2.3684 H     162  UNL162      0.0521
    970 H          11.3567    5.0164    2.0467 H     162  UNL162      0.0521
    971 H          12.0254    6.0317    0.7425 H     162  UNL162      0.0521
    972 H          13.3672    5.2441    3.1219 H     162  UNL162      0.2090
    973 O          11.7891    6.7433    3.3687 O.3   163  UNL163     -0.3982
    974 C          12.3129    5.9350    4.4064 C.3   163  UNL163      0.0330
    975 H          13.0383    6.5105    4.9868 H     163  UNL163      0.0521
    976 H          12.7926    5.0529    3.9755 H     163  UNL163      0.0521
    977 H          11.4951    5.6202    5.0588 H     163  UNL163      0.0521
    978 H          12.5375    7.0071    2.8066 H     163  UNL163      0.2090
    979 O          11.4529    7.4348   -0.1586 O.3   164  UNL164     -0.3982
    980 C          10.1495    7.6929    0.3304 C.3   164  UNL164      0.0330
    981 H           9.5070    8.0134   -0.4935 H     164  UNL164      0.0521
    982 H          10.1942    8.4715    1.0958 H     164  UNL164      0.0521
    983 H           9.7466    6.7769    0.7687 H     164  UNL164      0.0521
    984 H          11.7841    8.2651   -0.5412 H     164  UNL164      0.2090
    985 O          11.7217    8.0667    1.6780 O.3   165  UNL165     -0.3982
    986 C          10.3724    8.0219    2.1045 C.3   165  UNL165      0.0330
    987 H          10.2777    7.3295    2.9448 H     165  UNL165      0.0521
    988 H           9.7383    7.6957    1.2766 H     165  UNL165      0.0521
    989 H          10.0669    9.0214    2.4226 H     165  UNL165      0.0521
    990 H          11.9642    7.1664    1.4021 H     165  UNL165      0.2090
    991 O          10.9738    9.8649    4.4748 O.3   166  UNL166     -0.3982
    992 C           9.7378    9.3402    4.9237 C.3   166  UNL166      0.0330
    993 H           9.1029   10.1551    5.2801 H     166  UNL166      0.0521
    994 H           9.9162    8.6239    5.7294 H     166  UNL166      0.0521
    995 H           9.2436    8.8335    4.0915 H     166  UNL166      0.0521
    996 H          11.3888   10.3081    5.2343 H     166  UNL166      0.2090
    997 O          13.3010    9.3624    0.2497 O.3   167  UNL167     -0.3982
    998 C          12.0209    9.9608    0.3387 C.3   167  UNL167      0.0330
    999 H          11.3098    9.3939   -0.2673 H     167  UNL167      0.0521
   1000 H          12.0752   10.9934   -0.0146 H     167  UNL167      0.0521
   1001 H          11.6961    9.9515    1.3818 H     167  UNL167      0.0521
   1002 H          13.5625    9.3851   -0.6866 H     167  UNL167      0.2090
   1003 O          13.2532    9.2569    1.8880 O.3   168  UNL168     -0.3982
   1004 C          12.2679   10.2277    2.1902 C.3   168  UNL168      0.0330
   1005 H          11.4687    9.7669    2.7761 H     168  UNL168      0.0521
   1006 H          11.8633   10.6386    1.2620 H     168  UNL168      0.0521
   1007 H          12.7268   11.0305    2.7719 H     168  UNL168      0.0521
   1008 H          12.8167    8.5579    1.3718 H     168  UNL168      0.2090
   1009 O          12.2262    9.0263    3.9056 O.3   169  UNL169     -0.3982
   1010 C          12.5743   10.3841    4.1048 C.3   169  UNL169      0.0330
   1011 H          11.6742   11.0022    4.0609 H     169  UNL169      0.0521
   1012 H          13.2820   10.6968    3.3331 H     169  UNL169      0.0521
   1013 H          13.0395   10.4911    5.0876 H     169  UNL169      0.0521
   1014 H          11.8161    8.9626    3.0262 H     169  UNL169      0.2090
   1015 O          11.7752   11.8640   -0.0229 O.3   170  UNL170     -0.3982
   1016 C          10.3723   11.7256   -0.1540 C.3   170  UNL170      0.0330
   1017 H           9.8896   12.6834    0.0556 H     170  UNL170      0.0521
   1018 H          10.0137   10.9645    0.5431 H     170  UNL170      0.0521
   1019 H          10.1396   11.4188   -1.1764 H     170  UNL170      0.0521
   1020 H          11.9509   12.1367    0.8938 H     170  UNL170      0.2090
   1021 O          13.3229   11.8882    1.7607 O.3   171  UNL171     -0.3982
   1022 C          11.9841   11.9157    2.2205 C.3   171  UNL171      0.0330
   1023 H          11.5339   10.9280    2.0935 H     171  UNL171      0.0521
   1024 H          11.4191   12.6609    1.6554 H     171  UNL171      0.0521
   1025 H          11.9776   12.1831    3.2798 H     171  UNL171      0.0521
   1026 H          13.2966   11.6483    0.8188 H     171  UNL171      0.2090
   1027 O          11.0685   14.0365    4.8090 O.3   172  UNL172     -0.3982
   1028 C          10.3622   14.1475    3.5870 C.3   172  UNL172      0.0330
   1029 H           9.7930   15.0804    3.5775 H     172  UNL172      0.0521
   1030 H           9.6874   13.2953    3.4764 H     172  UNL172      0.0521
   1031 H          11.0783   14.1519    2.7619 H     172  UNL172      0.0521
   1032 H          10.4073   14.0352    5.5220 H     172  UNL172      0.2090
   1033 O          13.4684   13.8840    0.3255 O.3   173  UNL173     -0.3982
   1034 C          12.0573   13.7839    0.2681 C.3   173  UNL173      0.0330
   1035 H          11.7765   12.9415   -0.3690 H     173  UNL173      0.0521
   1036 H          11.6413   14.7117   -0.1321 H     173  UNL173      0.0521
   1037 H          11.6714   13.6194    1.2769 H     173  UNL173      0.0521
   1038 H          13.7817   14.0296   -0.5834 H     173  UNL173      0.2090
   1039 O          13.2218   13.4816    2.1415 O.3   174  UNL174     -0.3982
   1040 C          11.9959   14.1876    2.1979 C.3   174  UNL174      0.0330
   1041 H          11.1654   13.4877    2.0769 H     174  UNL174      0.0521
   1042 H          11.9708   14.9398    1.4056 H     174  UNL174      0.0521
   1043 H          11.9147   14.6816    3.1689 H     174  UNL174      0.0521
   1044 H          13.2655   13.0542    1.2692 H     174  UNL174      0.2090
   1045 O          13.2139   13.6253    4.0022 O.3   175  UNL175     -0.3982
   1046 C          11.8162   13.7314    4.2018 C.3   175  UNL175      0.0330
   1047 H          11.3020   13.6381    3.2420 H     175  UNL175      0.0521
   1048 H          11.5848   14.6965    4.6589 H     175  UNL175      0.0521
   1049 H          11.4903   12.9283    4.8669 H     175  UNL175      0.0521
   1050 H          13.4736   14.3504    3.4087 H     175  UNL175      0.2090
   1051 O          13.3406   15.9311    0.2061 O.3   176  UNL176     -0.3982
   1052 C          11.9451   16.1463    0.3099 C.3   176  UNL176      0.0330
   1053 H          11.4423   15.1954    0.5030 H     176  UNL176      0.0521
   1054 H          11.5732   16.5853   -0.6190 H     176  UNL176      0.0521
   1055 H          11.7521   16.8327    1.1377 H     176  UNL176      0.0521
   1056 H          13.4808   15.3187   -0.5361 H     176  UNL176      0.2090
   1057 O          13.3335   15.5155    1.9189 O.3   177  UNL177     -0.3982
   1058 C          12.0446   16.0924    2.0207 C.3   177  UNL177      0.0330
   1059 H          12.1172   17.1746    1.8874 H     177  UNL177      0.0521
   1060 H          11.6182   15.8630    3.0003 H     177  UNL177      0.0521
   1061 H          11.4051   15.6734    1.2403 H     177  UNL177      0.0521
   1062 H          13.8780   15.9062    2.6234 H     177  UNL177      0.2090
   1063 O          11.7182   16.3392    4.8419 O.3   178  UNL178     -0.3982
   1064 C          10.3533   16.0640    5.0984 C.3   178  UNL178      0.0330
   1065 H          10.2661   15.1141    5.6317 H     178  UNL178      0.0521
   1066 H           9.8067   16.0151    4.1535 H     178  UNL178      0.0521
   1067 H           9.9391   16.8650    5.7153 H     178  UNL178      0.0521
   1068 H          12.0580   15.6120    4.2931 H     178  UNL178      0.2090
   1069 O          13.3208   17.8121   -0.0147 O.3   179  UNL179     -0.3982
   1070 C          11.9764   18.2495    0.0615 C.3   179  UNL179      0.0330
   1071 H          11.3574   17.4553    0.4862 H     179  UNL179      0.0521
   1072 H          11.6196   18.5091   -0.9381 H     179  UNL179      0.0521
   1073 H          11.9257   19.1313    0.7045 H     179  UNL179      0.0521
   1074 H          13.3343   17.0293   -0.5914 H     179  UNL179      0.2090
   1075 O          13.2095   17.5910    1.7905 O.3   180  UNL180     -0.3982
   1076 C          12.0746   18.4117    1.9981 C.3   180  UNL180      0.0330
   1077 H          11.4104   17.9392    2.7261 H     180  UNL180      0.0521
   1078 H          11.5501   18.5562    1.0505 H     180  UNL180      0.0521
   1079 H          12.4022   19.3806    2.3821 H     180  UNL180      0.0521
   1080 H          12.8875   16.7390    1.4500 H     180  UNL180      0.2090
   1081 O          11.6327   17.0163    3.6560 O.3   181  UNL181     -0.3982
   1082 C          12.5801   18.0206    3.9695 C.3   181  UNL181      0.0330
   1083 H          12.1635   18.6933    4.7233 H     181  UNL181      0.0521
   1084 H          12.8318   18.5803    3.0654 H     181  UNL181      0.0521
   1085 H          13.4818   17.5473    4.3652 H     181  UNL181      0.0521
   1086 H          10.8442   17.4662    3.3075 H     181  UNL181      0.2090
   1087 O          15.6433   -0.3426    0.2932 O.3   182  UNL182     -0.3982
   1088 C          14.2305   -0.2825    0.2237 C.3   182  UNL182      0.0330
   1089 H          13.8340   -1.2726   -0.0145 H     182  UNL182      0.0521
   1090 H          13.9329    0.4354   -0.5445 H     182  UNL182      0.0521
   1091 H          13.8406    0.0405    1.1918 H     182  UNL182      0.0521
   1092 H          15.9603   -0.6317   -0.5794 H     182  UNL182      0.2090
   1093 O          15.7276   -0.3022    1.9890 O.3   183  UNL183     -0.3982
   1094 C          14.3147   -0.2564    2.0667 C.3   183  UNL183      0.0330
   1095 H          13.8875   -1.0084    1.3986 H     183  UNL183      0.0521
   1096 H          13.9654    0.7393    1.7827 H     183  UNL183      0.0521
   1097 H          14.0083   -0.4684    3.0937 H     183  UNL183      0.0521
   1098 H          15.9694   -0.1103    1.0669 H     183  UNL183      0.2090
   1099 O          15.7194    1.6382    0.1704 O.3   184  UNL184     -0.3982
   1100 C          14.3376    1.9373    0.2462 C.3   184  UNL184      0.0330
   1101 H          13.7626    1.0080    0.2552 H     184  UNL184      0.0521
   1102 H          14.0487    2.5487   -0.6122 H     184  UNL184      0.0521
   1103 H          14.1441    2.4919    1.1674 H     184  UNL184      0.0521
   1104 H          15.8604    1.1465   -0.6565 H     184  UNL184      0.2090
   1105 O          15.6025    1.6878    1.5480 O.3   185  UNL185     -0.3982
   1106 C          14.2142    1.6679    1.8248 C.3   185  UNL185      0.0330
   1107 H          13.8776    2.6763    2.0778 H     185  UNL185      0.0521
   1108 H          14.0174    0.9871    2.6565 H     185  UNL185      0.0521
   1109 H          13.6800    1.3197    0.9376 H     185  UNL185      0.0521
   1110 H          16.0498    2.0005    2.3527 H     185  UNL185      0.2090
   1111 O          13.5122    1.7956    5.5039 O.3   186  UNL186     -0.3982
   1112 C          12.2784    1.9878    4.8366 C.3   186  UNL186      0.0330
   1113 H          11.5177    1.3417    5.2818 H     186  UNL186      0.0521
   1114 H          12.3963    1.7525    3.7761 H     186  UNL186      0.0521
   1115 H          11.9750    3.0318    4.9443 H     186  UNL186      0.0521
   1116 H          13.7555    0.8610    5.3910 H     186  UNL186      0.2090
   1117 O          15.7321    3.8029    0.1107 O.3   187  UNL187     -0.3982
   1118 C          14.3246    3.8453    0.2572 C.3   187  UNL187      0.0330
   1119 H          13.9367    2.8283    0.3549 H     187  UNL187      0.0521
   1120 H          13.8813    4.3336   -0.6140 H     187  UNL187      0.0521
   1121 H          14.0779    4.4149    1.1562 H     187  UNL187      0.0521
   1122 H          15.9203    3.2914   -0.6946 H     187  UNL187      0.2090
   1123 O          15.7629    3.7110    1.6043 O.3   188  UNL188     -0.3982
   1124 C          14.3884    3.7285    1.9432 C.3   188  UNL188      0.0330
   1125 H          14.1252    4.7077    2.3510 H     188  UNL188      0.0521
   1126 H          14.1840    2.9481    2.6803 H     188  UNL188      0.0521
   1127 H          13.7982    3.5403    1.0434 H     188  UNL188      0.0521
   1128 H          16.2610    3.8807    2.4220 H     188  UNL188      0.2090
   1129 O          15.7827    3.6657    3.8611 O.3   189  UNL189     -0.3982
   1130 C          14.4218    3.6268    4.2495 C.3   189  UNL189      0.0330
   1131 H          13.7975    3.4312    3.3741 H     189  UNL189      0.0521
   1132 H          14.1439    4.5815    4.7026 H     189  UNL189      0.0521
   1133 H          14.2834    2.8256    4.9793 H     189  UNL189      0.0521
   1134 H          15.8747    4.3855    3.2139 H     189  UNL189      0.2090
   1135 O          11.5405    5.5910   -0.1268 O.3   190  UNL190     -0.3982
   1136 C          12.9156    5.7378    0.1764 C.3   190  UNL190      0.0330
   1137 H          13.0268    6.3140    1.0984 H     190  UNL190      0.0521
   1138 H          13.4188    6.2487   -0.6481 H     190  UNL190      0.0521
   1139 H          13.3571    4.7478    0.3125 H     190  UNL190      0.0521
   1140 H          11.1762    6.4851   -0.2420 H     190  UNL190      0.2090
   1141 O          15.7592    5.7935    1.6281 O.3   191  UNL191     -0.3982
   1142 C          14.3638    5.7647    1.8659 C.3   191  UNL191      0.0330
   1143 H          13.9735    6.7855    1.8742 H     191  UNL191      0.0521
   1144 H          14.1667    5.2801    2.8252 H     191  UNL191      0.0521
   1145 H          13.8789    5.1981    1.0675 H     191  UNL191      0.0521
   1146 H          16.1619    6.3025    2.3521 H     191  UNL191      0.2090
   1147 O          15.2191    5.4605    4.7561 O.3   192  UNL192     -0.3982
   1148 C          14.5122    6.1522    3.7430 C.3   192  UNL192      0.0330
   1149 H          13.4634    5.8455    3.7550 H     192  UNL192      0.0521
   1150 H          14.9570    5.9293    2.7701 H     192  UNL192      0.0521
   1151 H          14.5778    7.2259    3.9338 H     192  UNL192      0.0521
   1152 H          15.1432    4.5111    4.5601 H     192  UNL192      0.2090
   1153 O          13.9368    7.8512    0.3790 O.3   193  UNL193     -0.3982
   1154 C          12.5508    7.9671    0.1147 C.3   193  UNL193      0.0330
   1155 H          12.0301    7.0880    0.5025 H     193  UNL193      0.0521
   1156 H          12.3904    8.0530   -0.9628 H     193  UNL193      0.0521
   1157 H          12.1683    8.8625    0.6102 H     193  UNL193      0.0521
   1158 H          14.2477    7.0484   -0.0731 H     193  UNL193      0.2090
   1159 O          15.4481    8.1831    1.5618 O.3   194  UNL194     -0.3982
   1160 C          14.2275    7.7137    2.1043 C.3   194  UNL194      0.0330
   1161 H          13.7704    8.5003    2.7097 H     194  UNL194      0.0521
   1162 H          14.4167    6.8299    2.7184 H     194  UNL194      0.0521
   1163 H          13.5537    7.4487    1.2861 H     194  UNL194      0.0521
   1164 H          16.0251    8.4102    2.3108 H     194  UNL194      0.2090
   1165 O          13.2398    8.9538    4.6752 O.3   195  UNL195     -0.3982
   1166 C          12.0536    9.7079    4.8451 C.3   195  UNL195      0.0330
   1167 H          12.2839   10.6373    5.3720 H     195  UNL195      0.0521
   1168 H          11.3278    9.1233    5.4156 H     195  UNL195      0.0521
   1169 H          11.6377    9.9422    3.8624 H     195  UNL195      0.0521
   1170 H          13.5855    8.7612    5.5634 H     195  UNL195      0.2090
   1171 O          15.4642   10.3427    0.2714 O.3   196  UNL196     -0.3982
   1172 C          14.4054    9.5369   -0.2124 C.3   196  UNL196      0.0330
   1173 H          13.5266   10.1600   -0.3959 H     196  UNL196      0.0521
   1174 H          14.1699    8.7634    0.5226 H     196  UNL196      0.0521
   1175 H          14.7166    9.0652   -1.1475 H     196  UNL196      0.0521
   1176 H          15.1589   10.7478    1.1010 H     196  UNL196      0.2090
   1177 O          15.7993   10.1188    1.5900 O.3   197  UNL197     -0.3982
   1178 C          14.4382    9.8857    1.9025 C.3   197  UNL197      0.0330
   1179 H          13.9767   10.8164    2.2416 H     197  UNL197      0.0521
   1180 H          14.3680    9.1257    2.6845 H     197  UNL197      0.0521
   1181 H          13.9235    9.5317    1.0062 H     197  UNL197      0.0521
   1182 H          16.2297   10.4316    2.4039 H     197  UNL197      0.2090
   1183 O          15.5449    9.3543    3.8198 O.3   198  UNL198     -0.3982
   1184 C          14.5799   10.3409    4.1359 C.3   198  UNL198      0.0330
   1185 H          13.5775    9.9193    4.0275 H     198  UNL198      0.0521
   1186 H          14.7008   11.1973    3.4680 H     198  UNL198      0.0521
   1187 H          14.7272   10.6638    5.1691 H     198  UNL198      0.0521
   1188 H          15.3893    9.0875    2.8978 H     198  UNL198      0.2090
   1189 O          14.0922   12.0535    0.0119 O.3   199  UNL199     -0.3982
   1190 C          12.6976   12.1695    0.2269 C.3   199  UNL199      0.0330
   1191 H          12.3359   11.2880    0.7621 H     199  UNL199      0.0521
   1192 H          12.1862   12.2605   -0.7345 H     199  UNL199      0.0521
   1193 H          12.5035   13.0621    0.8262 H     199  UNL199      0.0521
   1194 H          14.2333   11.2532   -0.5222 H     199  UNL199      0.2090
   1195 O          15.3706   11.4041    2.6139 O.3   200  UNL200     -0.3982
   1196 C          14.3674   11.9260    1.7620 C.3   200  UNL200      0.0330
   1197 H          14.8268   12.5715    1.0093 H     200  UNL200      0.0521
   1198 H          13.6455   12.4945    2.3534 H     200  UNL200      0.0521
   1199 H          13.8565   11.0976    1.2657 H     200  UNL200      0.0521
   1200 H          15.8061   12.1619    3.0400 H     200  UNL200      0.2090
   1201 O          13.0372   13.6833    4.8208 O.3   201  UNL201     -0.3982
   1202 C          12.7504   14.0556    3.4852 C.3   201  UNL201      0.0330
   1203 H          12.5551   15.1299    3.4394 H     201  UNL201      0.0521
   1204 H          11.8787   13.5005    3.1305 H     201  UNL201      0.0521
   1205 H          13.6119   13.8171    2.8571 H     201  UNL201      0.0521
   1206 H          12.2553   13.9068    5.3538 H     201  UNL201      0.2090
   1207 O          15.1300   14.3385    0.9029 O.3   202  UNL202     -0.3982
   1208 C          14.8675   13.7342   -0.3502 C.3   202  UNL202      0.0330
   1209 H          14.6229   14.5062   -1.0840 H     202  UNL202      0.0521
   1210 H          14.0345   13.0341   -0.2507 H     202  UNL202      0.0521
   1211 H          15.7584   13.1929   -0.6772 H     202  UNL202      0.0521
   1212 H          14.3222   14.8110    1.1671 H     202  UNL202      0.2090
   1213 O          15.5617   14.6272    2.0338 O.3   203  UNL203     -0.3982
   1214 C          14.4088   13.8530    1.7585 C.3   203  UNL203      0.0330
   1215 H          13.5146   14.4217    2.0253 H     203  UNL203      0.0521
   1216 H          14.4473   12.9238    2.3322 H     203  UNL203      0.0521
   1217 H          14.3844   13.6191    0.6916 H     203  UNL203      0.0521
   1218 H          15.5561   14.8190    2.9871 H     203  UNL203      0.2090
   1219 O          15.4229   14.0239    4.5231 O.3   204  UNL204     -0.3982
   1220 C          14.1817   13.5533    4.0309 C.3   204  UNL204      0.0330
   1221 H          14.2383   13.4402    2.9454 H     204  UNL204      0.0521
   1222 H          13.3923   14.2618    4.2934 H     204  UNL204      0.0521
   1223 H          13.9639   12.5838    4.4851 H     204  UNL204      0.0521
   1224 H          15.5891   14.8848    4.1027 H     204  UNL204      0.2090
   1225 O          15.7468   16.0901    0.6280 O.3   205  UNL205     -0.3982
   1226 C          14.6045   15.7543   -0.1380 C.3   205  UNL205      0.0330
   1227 H          13.9182   16.6044   -0.1623 H     205  UNL205      0.0521
   1228 H          14.1104   14.8860    0.3045 H     205  UNL205      0.0521
   1229 H          14.9180   15.5127   -1.1563 H     205  UNL205      0.0521
   1230 H          15.4374   16.2994    1.5258 H     205  UNL205      0.2090
   1231 O          15.4333   16.6379    2.6095 O.3   206  UNL206     -0.3982
   1232 C          14.5485   15.8468    1.8376 C.3   206  UNL206      0.0330
   1233 H          13.7520   16.4771    1.4345 H     206  UNL206      0.0521
   1234 H          14.1227   15.0588    2.4635 H     206  UNL206      0.0521
   1235 H          15.1042   15.3938    1.0132 H     206  UNL206      0.0521
   1236 H          14.9121   17.0264    3.3327 H     206  UNL206      0.2090
   1237 O          13.4563   15.9491    4.0236 O.3   207  UNL207     -0.3982
   1238 C          14.8677   15.9788    4.1302 C.3   207  UNL207      0.0330
   1239 H          15.1943   16.9925    4.3753 H     207  UNL207      0.0521
   1240 H          15.3122   15.6601    3.1843 H     207  UNL207      0.0521
   1241 H          15.1785   15.2962    4.9246 H     207  UNL207      0.0521
   1242 H          13.2105   16.5639    3.3114 H     207  UNL207      0.2090
   1243 O          15.0781   17.1649   -0.5229 O.3   208  UNL208     -0.3982
   1244 C          14.6025   18.2510    0.2509 C.3   208  UNL208      0.0330
   1245 H          13.9140   17.8814    1.0149 H     208  UNL208      0.0521
   1246 H          14.0927   18.9667   -0.3987 H     208  UNL208      0.0521
   1247 H          15.4508   18.7412    0.7344 H     208  UNL208      0.0521
   1248 H          14.3035   16.7500   -0.9394 H     208  UNL208      0.2090
   1249 O          15.3138   17.4918    1.3842 O.3   209  UNL209     -0.3982
   1250 C          14.5022   18.3056    2.2109 C.3   209  UNL209      0.0330
   1251 H          14.0161   17.6864    2.9689 H     209  UNL209      0.0521
   1252 H          13.7498   18.8108    1.6004 H     209  UNL209      0.0521
   1253 H          15.1310   19.0521    2.7019 H     209  UNL209      0.0521
   1254 H          14.7286   16.8398    0.9623 H     209  UNL209      0.2090
   1255 O          15.5375   18.2383    3.5120 O.3   210  UNL210     -0.3982
   1256 C          14.4131   18.1754    4.3700 C.3   210  UNL210      0.0330
   1257 H          14.2192   17.1349    4.6423 H     210  UNL210      0.0521
   1258 H          13.5427   18.5989    3.8631 H     210  UNL210      0.0521
   1259 H          14.6228   18.7531    5.2733 H     210  UNL210      0.0521
   1260 H          15.3219   17.7171    2.7199 H     210  UNL210      0.2090
   1261 O          18.1150   -0.3090    0.2056 O.3   211  UNL211     -0.3982
   1262 C          16.7140   -0.1064    0.2300 C.3   211  UNL211      0.0330
   1263 H          16.2059   -1.0727    0.2797 H     211  UNL211      0.0521
   1264 H          16.4072    0.4327   -0.6696 H     211  UNL211      0.0521
   1265 H          16.4557    0.4844    1.1120 H     211  UNL211      0.0521
   1266 H          18.3137   -0.8356   -0.5873 H     211  UNL211      0.2090
   1267 O          17.7840   -1.0427    2.4712 O.3   212  UNL212     -0.3982
   1268 C          16.8098   -0.2389    1.8315 C.3   212  UNL212      0.0330
   1269 H          17.3017    0.4528    1.1430 H     212  UNL212      0.0521
   1270 H          16.2452    0.3182    2.5830 H     212  UNL212      0.0521
   1271 H          16.1288   -0.8841    1.2715 H     212  UNL212      0.0521
   1272 H          18.3733   -0.4430    2.9596 H     212  UNL212      0.2090
   1273 O          13.7075    1.5276    4.0402 O.3   213  UNL213     -0.3982
   1274 C          15.1148    1.5637    3.8894 C.3   213  UNL213      0.0330
   1275 H          15.3927    1.0964    2.9414 H     213  UNL213      0.0521
   1276 H          15.5849    1.0333    4.7210 H     213  UNL213      0.0521
   1277 H          15.4457    2.6049    3.8906 H     213  UNL213      0.0521
   1278 H          13.4436    0.5918    4.0355 H     213  UNL213      0.2090
   1279 O          17.8200    2.0089    0.3913 O.3   214  UNL214     -0.3982
   1280 C          16.7257    1.4656   -0.3241 C.3   214  UNL214      0.0330
   1281 H          16.0534    2.2710   -0.6301 H     214  UNL214      0.0521
   1282 H          16.1928    0.7527    0.3097 H     214  UNL214      0.0521
   1283 H          17.1016    0.9508   -1.2114 H     214  UNL214      0.0521
   1284 H          17.4556    2.4590    1.1724 H     214  UNL214      0.2090
   1285 O          18.1227    1.9586    2.4224 O.3   215  UNL215     -0.3982
   1286 C          16.8840    1.7636    1.7652 C.3   215  UNL215      0.0330
   1287 H          16.3770    2.7247    1.6487 H     215  UNL215      0.0521
   1288 H          16.2634    1.0808    2.3507 H     215  UNL215      0.0521
   1289 H          17.0690    1.3299    0.7797 H     215  UNL215      0.0521
   1290 H          17.9265    2.3441    3.2933 H     215  UNL215      0.2090
   1291 O          18.1896    1.8425    4.1330 O.3   216  UNL216     -0.3982
   1292 C          16.7867    1.9129    3.9563 C.3   216  UNL216      0.0330
   1293 H          16.2929    1.8627    4.9299 H     216  UNL216      0.0521
   1294 H          16.4561    1.0846    3.3250 H     216  UNL216      0.0521
   1295 H          16.5366    2.8597    3.4718 H     216  UNL216      0.0521
   1296 H          18.3809    0.9925    4.5646 H     216  UNL216      0.2090
   1297 O          17.9186    3.5848    0.2850 O.3   217  UNL217     -0.3982
   1298 C          16.6519    3.7234   -0.3322 C.3   217  UNL217      0.0330
   1299 H          16.2598    4.7253   -0.1405 H     217  UNL217      0.0521
   1300 H          15.9674    2.9703    0.0657 H     217  UNL217      0.0521
   1301 H          16.7637    3.5781   -1.4092 H     217  UNL217      0.0521
   1302 H          17.7876    3.7188    1.2392 H     217  UNL217      0.2090
   1303 O          18.0930    4.2553    2.3311 O.3   218  UNL218     -0.3982
   1304 C          16.8981    3.7205    1.7919 C.3   218  UNL218      0.0330
   1305 H          16.1690    4.5226    1.6531 H     218  UNL218      0.0521
   1306 H          16.4980    2.9634    2.4706 H     218  UNL218      0.0521
   1307 H          17.1189    3.2605    0.8259 H     218  UNL218      0.0521
   1308 H          17.8657    4.6563    3.1873 H     218  UNL218      0.2090
   1309 O          16.6019    3.3540    4.7878 O.3   219  UNL219     -0.3982
   1310 C          17.2513    3.8897    3.6495 C.3   219  UNL219      0.0330
   1311 H          18.2491    4.2377    3.9282 H     219  UNL219      0.0521
   1312 H          16.6629    4.7191    3.2499 H     219  UNL219      0.0521
   1313 H          17.3391    3.1090    2.8903 H     219  UNL219      0.0521
   1314 H          16.5385    4.0692    5.4436 H     219  UNL219      0.2090
   1315 O          16.1239    6.2025   -0.0064 O.3   220  UNL220     -0.3982
   1316 C          14.7620    5.8659    0.1843 C.3   220  UNL220      0.0330
   1317 H          14.6920    4.9169    0.7217 H     220  UNL220      0.0521
   1318 H          14.2665    5.7846   -0.7862 H     220  UNL220      0.0521
   1319 H          14.2808    6.6512    0.7719 H     220  UNL220      0.0521
   1320 H          16.5241    5.4878   -0.5305 H     220  UNL220      0.2090
   1321 O          17.8645    6.2756    2.7122 O.3   221  UNL221     -0.3982
   1322 C          17.0230    5.5572    1.8290 C.3   221  UNL221      0.0330
   1323 H          16.6252    6.2359    1.0704 H     221  UNL221      0.0521
   1324 H          16.2042    5.1035    2.3927 H     221  UNL221      0.0521
   1325 H          17.6063    4.7720    1.3423 H     221  UNL221      0.0521
   1326 H          17.3196    6.9648    3.1289 H     221  UNL221      0.2090
   1327 O          16.2062    6.5158    3.8939 O.3   222  UNL222     -0.3982
   1328 C          17.2698    5.5840    3.8244 C.3   222  UNL222      0.0330
   1329 H          17.0308    4.7105    4.4361 H     222  UNL222      0.0521
   1330 H          18.1897    6.0524    4.1827 H     222  UNL222      0.0521
   1331 H          17.4026    5.2732    2.7854 H     222  UNL222      0.0521
   1332 H          16.1123    6.7730    4.8269 H     222  UNL222      0.2090
   1333 O          13.9878    8.0372   -0.7577 O.3   223  UNL223     -0.3982
   1334 C          15.0709    7.9352    0.1483 C.3   223  UNL223      0.0330
   1335 H          15.7971    7.2117   -0.2305 H     223  UNL223      0.0521
   1336 H          14.7005    7.6179    1.1261 H     223  UNL223      0.0521
   1337 H          15.5490    8.9131    0.2420 H     223  UNL223      0.0521
   1338 H          13.5836    7.1550   -0.8203 H     223  UNL223      0.2090
   1339 O          17.8050    8.1345    2.7207 O.3   224  UNL224     -0.3982
   1340 C          16.9344    7.6276    1.7259 C.3   224  UNL224      0.0330
   1341 H          16.6678    8.4281    1.0313 H     224  UNL224      0.0521
   1342 H          16.0346    7.2259    2.1983 H     224  UNL224      0.0521
   1343 H          17.4441    6.8297    1.1807 H     224  UNL224      0.0521
   1344 H          17.3256    8.8401    3.1873 H     224  UNL224      0.2090
   1345 O          15.5640   10.1426    4.9052 O.3   225  UNL225     -0.3982
   1346 C          14.4514    9.2751    4.7870 C.3   225  UNL225      0.0330
   1347 H          13.5275    9.8503    4.8867 H     225  UNL225      0.0521
   1348 H          14.5017    8.5087    5.5642 H     225  UNL225      0.0521
   1349 H          14.4763    8.7971    3.8049 H     225  UNL225      0.0521
   1350 H          15.5149   10.5518    5.7859 H     225  UNL225      0.2090
   1351 O          17.9752    9.7139   -0.1275 O.3   226  UNL226     -0.3982
   1352 C          16.5613    9.6785   -0.1920 C.3   226  UNL226      0.0330
   1353 H          16.1734   10.6975   -0.2661 H     226  UNL226      0.0521
   1354 H          16.1669    9.1914    0.7031 H     226  UNL226      0.0521
   1355 H          16.2600    9.1111   -1.0756 H     226  UNL226      0.0521
   1356 H          18.2123   10.2235    0.6660 H     226  UNL226      0.2090
   1357 O          17.8444   10.2987    2.7443 O.3   227  UNL227     -0.3982
   1358 C          17.0186    9.6558    1.7907 C.3   227  UNL227      0.0330
   1359 H          16.7862   10.3514    0.9806 H     227  UNL227      0.0521
   1360 H          16.0971    9.3202    2.2728 H     227  UNL227      0.0521
   1361 H          17.5504    8.7920    1.3850 H     227  UNL227      0.0521
   1362 H          17.3461   11.0604    3.0864 H     227  UNL227      0.2090
   1363 O          18.1639    9.6748    4.2246 O.3   228  UNL228     -0.3982
   1364 C          16.7551    9.7816    4.1326 C.3   228  UNL228      0.0330
   1365 H          16.4480    9.6745    3.0893 H     228  UNL228      0.0521
   1366 H          16.4364   10.7526    4.5194 H     228  UNL228      0.0521
   1367 H          16.2989    8.9872    4.7278 H     228  UNL228      0.0521
   1368 H          18.5405   10.3921    3.6869 H     228  UNL228      0.2090
   1369 O          16.2052   12.3652    0.4330 O.3   229  UNL229     -0.3982
   1370 C          15.1890   11.7148   -0.3079 C.3   229  UNL229      0.0330
   1371 H          14.5732   12.4609   -0.8163 H     229  UNL229      0.0521
   1372 H          14.5721   11.1157    0.3663 H     229  UNL229      0.0521
   1373 H          15.6534   11.0616   -1.0504 H     229  UNL229      0.0521
   1374 H          15.7631   12.9373    1.0832 H     229  UNL229      0.2090
   1375 O          18.0215   11.8119    1.6832 O.3   230  UNL230     -0.3982
   1376 C          16.6368   11.8704    1.9721 C.3   230  UNL230      0.0330
   1377 H          16.3581   12.8979    2.2189 H     230  UNL230      0.0521
   1378 H          16.4106   11.2086    2.8117 H     230  UNL230      0.0521
   1379 H          16.0763   11.5443    1.0929 H     230  UNL230      0.0521
   1380 H          18.4926   12.1066    2.4811 H     230  UNL230      0.2090
   1381 O          16.1041   14.3662    4.1101 O.3   231  UNL231     -0.3982
   1382 C          14.8412   13.9920    3.5909 C.3   231  UNL231      0.0330
   1383 H          14.0498   14.4467    4.1921 H     231  UNL231      0.0521
   1384 H          14.7471   12.9035    3.6085 H     231  UNL231      0.0521
   1385 H          14.7617   14.3458    2.5604 H     231  UNL231      0.0521
   1386 H          16.1453   14.0389    5.0249 H     231  UNL231      0.2090
   1387 O          17.9302   13.2782   -0.0618 O.3   232  UNL232     -0.3982
   1388 C          16.9716   14.2604    0.2856 C.3   232  UNL232      0.0330
   1389 H          16.0497   13.7720    0.6112 H     232  UNL232      0.0521
   1390 H          16.7728   14.8985   -0.5788 H     232  UNL232      0.0521
   1391 H          17.3666   14.8694    1.1021 H     232  UNL232      0.0521
   1392 H          17.5518   12.7539   -0.7880 H     232  UNL232      0.2090
   1393 O          18.0483   13.8126    2.4033 O.3   233  UNL233     -0.3982
   1394 C          16.7305   13.6883    1.9007 C.3   233  UNL233      0.0330
   1395 H          16.4172   14.6373    1.4585 H     233  UNL233      0.0521
   1396 H          16.0543   13.4119    2.7133 H     233  UNL233      0.0521
   1397 H          16.7143   12.9092    1.1351 H     233  UNL233      0.0521
   1398 H          18.0312   14.5107    3.0801 H     233  UNL233      0.2090
   1399 O          18.1783   13.8048    4.1544 O.3   234  UNL234     -0.3982
   1400 C          16.7638   13.8359    4.1010 C.3   234  UNL234      0.0330
   1401 H          16.4411   14.0267    3.0745 H     234  UNL234      0.0521
   1402 H          16.3905   14.6206    4.7635 H     234  UNL234      0.0521
   1403 H          16.3745   12.8693    4.4293 H     234  UNL234      0.0521
   1404 H          18.4946   14.6752    3.8578 H     234  UNL234      0.2090
   1405 O          18.1012   16.0607    0.5332 O.3   235  UNL235     -0.3982
   1406 C          16.7637   16.1413    0.0758 C.3   235  UNL235      0.0330
   1407 H          16.2384   15.2141    0.3178 H     235  UNL235      0.0521
   1408 H          16.7565   16.3055   -1.0044 H     235  UNL235      0.0521
   1409 H          16.2681   16.9786    0.5728 H     235  UNL235      0.0521
   1410 H          18.5149   15.3093    0.0752 H     235  UNL235      0.2090
   1411 O          17.9437   15.2604    2.0777 O.3   236  UNL236     -0.3982
   1412 C          16.6901   15.9125    1.9899 C.3   236  UNL236      0.0330
   1413 H          16.8377   16.9456    1.6655 H     236  UNL236      0.0521
   1414 H          16.1989   15.8924    2.9658 H     236  UNL236      0.0521
   1415 H          16.0676   15.3892    1.2603 H     236  UNL236      0.0521
   1416 H          18.4736   15.7468    2.7320 H     236  UNL236      0.2090
   1417 O          17.6909   15.4625    3.3747 O.3   237  UNL237     -0.3982
   1418 C          17.0042   16.3323    4.2558 C.3   237  UNL237      0.0330
   1419 H          16.3748   15.7467    4.9305 H     237  UNL237      0.0521
   1420 H          16.3897   17.0270    3.6780 H     237  UNL237      0.0521
   1421 H          17.7354   16.8957    4.8403 H     237  UNL237      0.0521
   1422 H          17.0166   14.9765    2.8700 H     237  UNL237      0.2090
   1423 O          17.8339   17.6439   -0.4293 O.3   238  UNL238     -0.3982
   1424 C          16.7518   18.2719    0.2334 C.3   238  UNL238      0.0330
   1425 H          16.5022   17.7112    1.1376 H     238  UNL238      0.0521
   1426 H          15.8877   18.3109   -0.4343 H     238  UNL238      0.0521
   1427 H          17.0444   19.2884    0.5068 H     238  UNL238      0.0521
   1428 H          17.5447   16.7445   -0.6594 H     238  UNL238      0.2090
   1429 O          17.6904   17.8956    1.1908 O.3   239  UNL239     -0.3982
   1430 C          16.7655   18.3142    2.1777 C.3   239  UNL239      0.0330
   1431 H          16.5912   17.4989    2.8842 H     239  UNL239      0.0521
   1432 H          15.8266   18.6029    1.6991 H     239  UNL239      0.0521
   1433 H          17.1794   19.1733    2.7108 H     239  UNL239      0.0521
   1434 H          17.2959   17.1328    0.7348 H     239  UNL239      0.2090
   1435 O          18.0909   17.7243    4.0430 O.3   240  UNL240     -0.3982
   1436 C          16.8166   18.3099    4.2372 C.3   240  UNL240      0.0330
   1437 H          16.0646   17.5233    4.3380 H     240  UNL240      0.0521
   1438 H          16.5761   18.9517    3.3862 H     240  UNL240      0.0521
   1439 H          16.8368   18.9106    5.1495 H     240  UNL240      0.0521
   1440 H          18.0421   17.1980    3.2269 H     240  UNL240      0.2090
   1441 O          19.6402    1.7523    1.3456 O.3   241  UNL241     -0.3982
   1442 C          20.8605    1.4481    1.9958 C.3   241  UNL241      0.0330
   1443 H          20.6543    1.0554    2.9946 H     241  UNL241      0.0521
   1444 H          21.4716    2.3512    2.0668 H     241  UNL241      0.0521
   1445 H          21.3950    0.6940    1.4134 H     241  UNL241      0.0521
   1446 H          19.1886    2.4235    1.8852 H     241  UNL241      0.2090
   1447 O          19.3086   -0.6710    5.0312 O.3   242  UNL242     -0.3982
   1448 C          20.6818   -0.3281    4.9955 C.3   242  UNL242      0.0330
   1449 H          20.8670    0.5089    5.6732 H     242  UNL242      0.0521
   1450 H          20.9635   -0.0545    3.9759 H     242  UNL242      0.0521
   1451 H          21.2717   -1.1904    5.3152 H     242  UNL242      0.0521
   1452 H          18.8108    0.1129    4.7427 H     242  UNL242      0.2090
   1453 O          19.8274   -0.9535   -0.7655 O.3   243  UNL243     -0.3982
   1454 C          19.4921    0.0304    0.1957 C.3   243  UNL243      0.0330
   1455 H          18.9980   -0.4441    1.0471 H     243  UNL243      0.0521
   1456 H          18.8295    0.7722   -0.2567 H     243  UNL243      0.0521
   1457 H          20.4070    0.5215    0.5355 H     243  UNL243      0.0521
   1458 H          18.9963   -1.3716   -1.0482 H     243  UNL243      0.2090
   1459 O          20.4875    0.0954    2.0595 O.3   244  UNL244     -0.3982
   1460 C          19.1041   -0.0900    2.2971 C.3   244  UNL244      0.0330
   1461 H          18.8955   -1.1546    2.4287 H     244  UNL244      0.0521
   1462 H          18.5327    0.3025    1.4524 H     244  UNL244      0.0521
   1463 H          18.8243    0.4489    3.2053 H     244  UNL244      0.0521
   1464 H          20.7061   -0.3938    1.2481 H     244  UNL244      0.2090
   1465 O          21.3991    1.6454    3.9642 O.3   245  UNL245     -0.3982
   1466 C          19.9843    1.5962    3.9764 C.3   245  UNL245      0.0330
   1467 H          19.5971    1.9831    3.0305 H     245  UNL245      0.0521
   1468 H          19.6052    2.1937    4.8091 H     245  UNL245      0.0521
   1469 H          19.6659    0.5586    4.1008 H     245  UNL245      0.0521
   1470 H          21.6517    2.5778    3.8527 H     245  UNL245      0.2090
   1471 O          21.0959    3.5124    0.2961 O.3   246  UNL246     -0.3982
   1472 C          19.8857    4.0530   -0.2014 C.3   246  UNL246      0.0330
   1473 H          19.2943    4.4490    0.6278 H     246  UNL246      0.0521
   1474 H          19.3249    3.2738   -0.7234 H     246  UNL246      0.0521
   1475 H          20.1179    4.8610   -0.8991 H     246  UNL246      0.0521
   1476 H          20.8580    2.7983    0.9118 H     246  UNL246      0.2090
   1477 O          20.3218    3.4264    0.7278 O.3   247  UNL247     -0.3982
   1478 C          19.1022    3.5675    0.0227 C.3   247  UNL247      0.0330
   1479 H          19.3079    3.8804   -1.0040 H     247  UNL247      0.0521
   1480 H          18.4752    4.3099    0.5225 H     247  UNL247      0.0521
   1481 H          18.5850    2.6053    0.0114 H     247  UNL247      0.0521
   1482 H          20.7579    4.2955    0.7212 H     247  UNL247      0.2090
   1483 O          21.0736    3.6877    2.0013 O.3   248  UNL248     -0.3982
   1484 C          19.6931    3.5541    1.7170 C.3   248  UNL248      0.0330
   1485 H          19.2758    4.5321    1.4647 H     248  UNL248      0.0521
   1486 H          19.1793    3.1405    2.5882 H     248  UNL248      0.0521
   1487 H          19.5690    2.8774    0.8683 H     248  UNL248      0.0521
   1488 H          21.1522    4.2932    2.7580 H     248  UNL248      0.2090
   1489 O          19.3885    3.5046    5.1177 O.3   249  UNL249     -0.3982
   1490 C          20.7832    3.6869    4.9558 C.3   249  UNL249      0.0330
   1491 H          21.1327    4.4609    5.6437 H     249  UNL249      0.0521
   1492 H          20.9961    3.9780    3.9244 H     249  UNL249      0.0521
   1493 H          21.2927    2.7467    5.1793 H     249  UNL249      0.0521
   1494 H          18.9635    4.3548    4.9128 H     249  UNL249      0.2090
   1495 O          21.1820    5.7012    0.4921 O.3   250  UNL250     -0.3982
   1496 C          19.7706    5.6674    0.5990 C.3   250  UNL250      0.0330
   1497 H          19.3715    4.9036   -0.0730 H     250  UNL250      0.0521
   1498 H          19.3612    6.6466    0.3392 H     250  UNL250      0.0521
   1499 H          19.4980    5.4224    1.6282 H     250  UNL250      0.0521
   1500 H          21.3934    5.9208   -0.4312 H     250  UNL250      0.2090
   1501 O          20.2170    5.7799   -0.4523 O.3   251  UNL251     -0.3982
   1502 C          18.8573    5.7368   -0.0598 C.3   251  UNL251      0.0330
   1503 H          18.4033    6.7199   -0.2071 H     251  UNL251      0.0521
   1504 H          18.7897    5.4461    0.9913 H     251  UNL251      0.0521
   1505 H          18.3336    5.0003   -0.6737 H     251  UNL251      0.0521
   1506 H          20.6556    6.4415    0.1095 H     251  UNL251      0.2090
   1507 O          21.3968    5.7976    4.1404 O.3   252  UNL252     -0.3982
   1508 C          19.9814    5.8230    4.1657 C.3   252  UNL252      0.0330
   1509 H          19.5911    4.9382    3.6566 H     252  UNL252      0.0521
   1510 H          19.6235    6.7290    3.6706 H     252  UNL252      0.0521
   1511 H          19.6446    5.8210    5.2050 H     252  UNL252      0.0521
   1512 H          21.6659    5.8000    3.2060 H     252  UNL252      0.2090
   1513 O          20.4276    3.4648    2.5136 O.3   253  UNL253     -0.3982
   1514 C          19.1894    4.1045    2.2644 C.3   253  UNL253      0.0330
   1515 H          18.4189    3.6721    2.9076 H     253  UNL253      0.0521
   1516 H          18.9168    3.9759    1.2141 H     253  UNL253      0.0521
   1517 H          19.2892    5.1699    2.4848 H     253  UNL253      0.0521
   1518 H          20.3082    2.5217    2.3094 H     253  UNL253      0.2090
   1519 O          20.9163    7.7760   -0.4033 O.3   254  UNL254     -0.3982
   1520 C          19.6244    7.7505    0.1754 C.3   254  UNL254      0.0330
   1521 H          19.3357    8.7627    0.4691 H     254  UNL254      0.0521
   1522 H          19.6283    7.0934    1.0485 H     254  UNL254      0.0521
   1523 H          18.9127    7.3700   -0.5610 H     254  UNL254      0.0521
   1524 H          21.5257    8.1176    0.2730 H     254  UNL254      0.2090
   1525 O          19.5280    8.5959    2.0365 O.3   255  UNL255     -0.3982
   1526 C          20.4177    7.4950    2.0652 C.3   255  UNL255      0.0330
   1527 H          21.2448    7.7114    2.7460 H     255  UNL255      0.0521
   1528 H          20.7997    7.3077    1.0587 H     255  UNL255      0.0521
   1529 H          19.8795    6.6123    2.4184 H     255  UNL255      0.0521
   1530 H          20.0336    9.3636    1.7195 H     255  UNL255      0.2090
   1531 O          19.2662    7.5790    5.0375 O.3   256  UNL256     -0.3982
   1532 C          20.6716    7.7455    4.9983 C.3   256  UNL256      0.0330
   1533 H          20.9603    8.5695    5.6555 H     256  UNL256      0.0521
   1534 H          20.9860    7.9557    3.9731 H     256  UNL256      0.0521
   1535 H          21.1482    6.8243    5.3417 H     256  UNL256      0.0521
   1536 H          18.8711    8.4118    4.7276 H     256  UNL256      0.2090
   1537 O          20.4266    9.6667    0.5688 O.3   257  UNL257     -0.3982
   1538 C          19.0639    9.8315    0.2219 C.3   257  UNL257      0.0330
   1539 H          18.9497    9.7443   -0.8615 H     257  UNL257      0.0521
   1540 H          18.7175   10.8119    0.5578 H     257  UNL257      0.0521
   1541 H          18.4758    9.0521    0.7120 H     257  UNL257      0.0521
   1542 H          20.9231   10.3719    0.1196 H     257  UNL257      0.2090
   1543 O          21.1946    9.5300   -0.0390 O.3   258  UNL258     -0.3982
   1544 C          19.8502    9.9469   -0.1916 C.3   258  UNL258      0.0330
   1545 H          19.8058   10.7908   -0.8846 H     258  UNL258      0.0521
   1546 H          19.4456   10.2384    0.7807 H     258  UNL258      0.0521
   1547 H          19.2643    9.1170   -0.5936 H     258  UNL258      0.0521
   1548 H          21.6894   10.2867    0.3190 H     258  UNL258      0.2090
   1549 O          21.3991    9.8100    4.0478 O.3   259  UNL259     -0.3982
   1550 C          19.9843    9.7874    4.0932 C.3   259  UNL259      0.0330
   1551 H          19.5971    9.3178    3.1855 H     259  UNL259      0.0521
   1552 H          19.6052   10.8088    4.1779 H     259  UNL259      0.0521
   1553 H          19.6659    9.2096    4.9640 H     259  UNL259      0.0521
   1554 H          21.6517   10.3293    3.2655 H     259  UNL259      0.2090
   1555 O          19.8402   12.8322    0.3742 O.3   260  UNL260     -0.3982
   1556 C          20.2887   11.5398    0.0097 C.3   260  UNL260      0.0330
   1557 H          21.1480   11.2640    0.6260 H     260  UNL260      0.0521
   1558 H          20.5679   11.5347   -1.0468 H     260  UNL260      0.0521
   1559 H          19.4803   10.8236    0.1741 H     260  UNL260      0.0521
   1560 H          20.5782   13.4456    0.2175 H     260  UNL260      0.2090
   1561 O          21.9023   11.7444    2.3081 O.3   261  UNL261     -0.3982
   1562 C          20.5986   11.6526    1.7635 C.3   261  UNL261      0.0330
   1563 H          20.3761   12.5582    1.1938 H     261  UNL261      0.0521
   1564 H          19.8731   11.5300    2.5713 H     261  UNL261      0.0521
   1565 H          20.5512   10.7862    1.0996 H     261  UNL261      0.0521
   1566 H          21.9137   12.5216    2.8924 H     261  UNL261      0.2090
   1567 O          21.3944   12.0509    5.0044 O.3   262  UNL262     -0.3982
   1568 C          19.9786   12.0509    5.0044 C.3   262  UNL262      0.0330
   1569 H          19.6133   11.2819    5.6896 H     262  UNL262      0.0521
   1570 H          19.6134   11.8562    3.9931 H     262  UNL262      0.0521
   1571 H          19.6233   13.0295    5.3356 H     262  UNL262      0.0521
   1572 H          21.6801   11.1705    4.7064 H     262  UNL262      0.2090
   1573 O          20.3255   13.6155    2.9717 O.3   263  UNL263     -0.3982
   1574 C          19.0722   13.7425    2.3253 C.3   263  UNL263      0.0330
   1575 H          19.1985   13.5900    1.2505 H     263  UNL263      0.0521
   1576 H          18.6613   14.7366    2.5173 H     263  UNL263      0.0521
   1577 H          18.3902   12.9862    2.7208 H     263  UNL263      0.0521
   1578 H          20.9090   14.2991    2.6004 H     263  UNL263      0.2090
   1579 O          19.5618   12.7559    2.7457 O.3   264  UNL264     -0.3982
   1580 C          19.0782   11.9744    1.6688 C.3   264  UNL264      0.0330
   1581 H          18.5790   11.0839    2.0589 H     264  UNL264      0.0521
   1582 H          19.9118   11.6850    1.0244 H     264  UNL264      0.0521
   1583 H          18.3637   12.5669    1.0925 H     264  UNL264      0.0521
   1584 H          20.1930   12.2041    3.2383 H     264  UNL264      0.2090
   1585 O          21.4700   13.7109    2.1296 O.3   265  UNL265     -0.3982
   1586 C          20.0871   13.9474    1.9400 C.3   265  UNL265      0.0330
   1587 H          19.5726   12.9968    1.7789 H     265  UNL265      0.0521
   1588 H          19.9435   14.6024    1.0772 H     265  UNL265      0.0521
   1589 H          19.6836   14.4308    2.8328 H     265  UNL265      0.0521
   1590 H          21.7999   13.2817    1.3219 H     265  UNL265      0.2090
   1591 O          21.0589   17.5089    0.4877 O.3   266  UNL266     -0.3982
   1592 C          19.6448   17.5481    0.4290 C.3   266  UNL266      0.0330
   1593 H          19.3109   17.2195   -0.5583 H     266  UNL266      0.0521
   1594 H          19.2994   18.5666    0.6219 H     266  UNL266      0.0521
   1595 H          19.2389   16.8777    1.1903 H     266  UNL266      0.0521
   1596 H          21.3901   18.1129   -0.1986 H     266  UNL266      0.2090
   1597 O          20.9636   15.9407    1.5251 O.3   267  UNL267     -0.3982
   1598 C          19.9614   16.1926    2.4928 C.3   267  UNL267      0.0330
   1599 H          19.4912   15.2505    2.7856 H     267  UNL267      0.0521
   1600 H          19.2134   16.8713    2.0757 H     267  UNL267      0.0521
   1601 H          20.4217   16.6552    3.3689 H     267  UNL267      0.0521
   1602 H          20.5255   15.5305    0.7600 H     267  UNL267      0.2090
   1603 O          20.1741   16.5119    1.3362 O.3   268  UNL268     -0.3982
   1604 C          19.1689   15.7667    1.9986 C.3   268  UNL268      0.0330
   1605 H          18.1847   16.0970    1.6575 H     268  UNL268      0.0521
   1606 H          19.2594   15.9105    3.0781 H     268  UNL268      0.0521
   1607 H          19.2978   14.7079    1.7623 H     268  UNL268      0.0521
   1608 H          20.0341   17.4467    1.5647 H     268  UNL268      0.2090
   1609 O          21.6090   16.1381    4.9733 O.3   269  UNL269     -0.3982
   1610 C          20.1941   16.1025    5.0094 C.3   269  UNL269      0.0330
   1611 H          19.8659   15.3425    5.7228 H     269  UNL269      0.0521
   1612 H          19.8091   15.8727    4.0130 H     269  UNL269      0.0521
   1613 H          19.8221   17.0801    5.3248 H     269  UNL269      0.0521
   1614 H          21.9099   15.2578    4.6904 H     269  UNL269      0.2090
   1615 O          20.4251   18.0936   -0.2341 O.3   270  UNL270     -0.3982
   1616 C          19.0107   18.0558   -0.1841 C.3   270  UNL270      0.0330
   1617 H          18.6287   19.0401    0.0977 H     270  UNL270      0.0521
   1618 H          18.6909   17.3068    0.5444 H     270  UNL270      0.0521
   1619 H          18.6274   17.7875   -1.1714 H     270  UNL270      0.0521
   1620 H          20.7361   18.3339    0.6554 H     270  UNL270      0.2090
   1621 O          19.3613   18.9954    1.8201 O.3   271  UNL271     -0.3982
   1622 C          20.7646   19.1224    1.9591 C.3   271  UNL271      0.0330
   1623 H          21.2349   18.1453    1.8241 H     271  UNL271      0.0521
   1624 H          20.9990   19.5176    2.9505 H     271  UNL271      0.0521
   1625 H          21.1362   19.8117    1.1973 H     271  UNL271      0.0521
   1626 H          19.0606   18.3784    2.5088 H     271  UNL271      0.2090
   1627 O          20.4592   18.9821    5.1511 O.3   272  UNL272     -0.3982
   1628 C          19.0660   19.1749    4.9892 C.3   272  UNL272      0.0330
   1629 H          18.5250   18.3667    5.4875 H     272  UNL272      0.0521
   1630 H          18.8207   19.1897    3.9245 H     272  UNL272      0.0521
   1631 H          18.7849   20.1301    5.4389 H     272  UNL272      0.0521
   1632 H          20.6787   18.1274    4.7426 H     272  UNL272      0.2090
@<TRIPOS>BOND
     1     1     2    1
     2     1     6    1
     3     2     3    1
     4     2     4    1
     5     2     5    1
     6     7     8    1
     7     7    12    1
     8     8     9    1
     9     8    10    1
    10     8    11    1
    11    13    14    1
    12    13    18    1
    13    14    15    1
    14    14    16    1
    15    14    17    1
    16    19    20    1
    17    19    24    1
    18    20    21    1
    19    20    22    1
    20    20    23    1
    21    25    26    1
    22    25    30    1
    23    26    27    1
    24    26    28    1
    25    26    29    1
    26    31    32    1
    27    31    36    1
    28    32    33    1
    29    32    34    1
    30    32    35    1
    31    37    38    1
    32    37    42    1
    33    38    39    1
    34    38    40    1
    35    38    41    1
    36    43    44    1
    37    43    48    1
    38    44    45    1
    39    44    46    1
    40    44    47    1
    41    49    50    1
    42    49    54    1
    43    50    51    1
    44    50    52    1
    45    50    53    1
    46    55    56    1
    47    55    60    1
    48    56    57    1
    49    56    58    1
    50    56    59    1
    51    61    62    1
    52    61    66    1
    53    62    63    1
    54    62    64    1
    55    62    65    1
    56    67    68    1
    57    67    72    1
    58    68    69    1
    59    68    70    1
    60    68    71    1
    61    73    74    1
    62    73    78    1
    63    74    75    1
    64    74    76    1
    65    74    77    1
    66    79    80    1
    67    79    84    1
    68    80    81    1
    69    80    82    1
    70    80    83    1
    71    85    86    1
    72    85    90    1
    73    86    87    1
    74    86    88    1
    75    86    89    1
    76    91    92    1
    77    91    96    1
    78    92    93    1
    79    92    94    1
    80    92    95    1
    81    97    98    1
    82    97   102    1
    83    98    99    1
    84    98   100    1
    85    98   101    1
    86   103   104    1
    87   103   108    1
    88   104   105    1
    89   104   106    1
    90   104   107    1
    91   109   110    1
    92   109   114    1
    93   110   111    1
    94   110   112    1
    95   110   113    1
    96   115   116    1
    97   115   120    1
    98   116   117    1
    99   116   118    1
   100   116   119    1
   101   121   122    1
   102   121   126    1
   103   122   123    1
   104   122   124    1
   105   122   125    1
   106   127   128    1
   107   127   132    1
   108   128   129    1
   109   128   130    1
   110   128   131    1
   111   133   134    1
   112   133   138    1
   113   134   135    1
   114   134   136    1
   115   134   137    1
   116   139   140    1
   117   139   144    1
   118   140   141    1
   119   140   142    1
   120   140   143    1
   121   145   146    1
   122   145   150    1
   123   146   147    1
   124   146   148    1
   125   146   149    1
   126   151   152    1
   127   151   156    1
   128   152   153    1
   129   152   154    1
   130   152   155    1
   131   157   158    1
   132   157   162    1
   133   158   159    1
   134   158   160    1
   135   158   161    1
   136   163   164    1
   137   163   168    1
   138   164   165    1
   139   164   166    1
   140   164   167    1
   141   169   170    1
   142   169   174    1
   143   170   171    1
   144   170   172    1
   145   170   173    1
   146   175   176    1
   147   175   180    1
   148   176   177    1
   149   176   178    1
   150   176   179    1
   151   181   182    1
   152   181   186    1
   153   182   183    1
   154   182   184    1
   155   182   185    1
   156   187   188    1
   157   187   192    1
   158   188   189    1
   159   188   190    1
   160   188   191    1
   161   193   194    1
   162   193   198    1
   163   194   195    1
   164   194   196    1
   165   194   197    1
   166   199   200    1
   167   199   204    1
   168   200   201    1
   169   200   202    1
   170   200   203    1
   171   205   206    1
   172   205   210    1
   173   206   207    1
   174   206   208    1
   175   206   209    1
   176   211   212    1
   177   211   216    1
   178   212   213    1
   179   212   214    1
   180   212   215    1
   181   217   218    1
   182   217   222    1
   183   218   219    1
   184   218   220    1
   185   218   221    1
   186   223   224    1
   187   223   228    1
   188   224   225    1
   189   224   226    1
   190   224   227    1
   191   229   230    1
   192   229   234    1
   193   230   231    1
   194   230   232    1
   195   230   233    1
   196   235   236    1
   197   235   240    1
   198   236   237    1
   199   236   238    1
   200   236   239    1
   201   241   242    1
   202   241   246    1
   203   242   243    1
   204   242   244    1
   205   242   245    1
   206   247   248    1
   207   247   252    1
   208   248   249    1
   209   248   250    1
   210   248   251    1
   211   253   254    1
   212   253   258    1
   213   254   255    1
   214   254   256    1
   215   254   257    1
   216   259   260    1
   217   259   264    1
   218   260   261    1
   219   260   262    1
   220   260   263    1
   221   265   266    1
   222   265   270    1
   223   266   267    1
   224   266   268    1
   225   266   269    1
   226   271   272    1
   227   271   276    1
   228   272   273    1
   229   272   274    1
   230   272   275    1
   231   277   278    1
   232   277   282    1
   233   278   279    1
   234   278   280    1
   235   278   281    1
   236   283   284    1
   237   283   288    1
   238   284   285    1
   239   284   286    1
   240   284   287    1
   241   289   290    1
   242   289   294    1
   243   290   291    1
   244   290   292    1
   245   290   293    1
   246   295   296    1
   247   295   300    1
   248   296   297    1
   249   296   298    1
   250   296   299    1
   251   301   302    1
   252   301   306    1
   253   302   303    1
   254   302   304    1
   255   302   305    1
   256   307   308    1
   257   307   312    1
   258   308   309    1
   259   308   310    1
   260   308   311    1
   261   313   314    1
   262   313   318    1
   263   314   315    1
   264   314   316    1
   265   314   317    1
   266   319   320    1
   267   319   324    1
   268   320   321    1
   269   320   322    1
   270   320   323    1
   271   325   326    1
   272   325   330    1
   273   326   327    1
   274   326   328    1
   275   326   329    1
   276   331   332    1
   277   331   336    1
   278   332   333    1
   279   332   334    1
   280   332   335    1
   281   337   338    1
   282   337   342    1
   283   338   339    1
   284   338   340    1
   285   338   341    1
   286   343   344    1
   287   343   348    1
   288   344   345    1
   289   344   346    1
   290   344   347    1
   291   349   350    1
   292   349   354    1
   293   350   351    1
   294   350   352    1
   295   350   353    1
   296   355   356    1
   297   355   360    1
   298   356   357    1
   299   356   358    1
   300   356   359    1
   301   361   362    1
   302   361   366    1
   303   362   363    1
   304   362   364    1
   305   362   365    1
   306   367   368    1
   307   367   372    1
   308   368   369    1
   309   368   370    1
   310   368   371    1
   311   373   374    1
   312   373   378    1
   313   374   375    1
   314   374   376    1
   315   374   377    1
   316   379   380    1
   317   379   384    1
   318   380   381    1
   319   380   382    1
   320   380   383    1
   321   385   386    1
   322   385   390    1
   323   386   387    1
   324   386   388    1
   325   386   389    1
   326   391   392    1
   327   391   396    1
   328   392   393    1
   329   392   394    1
   330   392   395    1
   331   397   398    1
   332   397   402    1
   333   398   399    1
   334   398   400    1
   335   398   401    1
   336   403   404    1
   337   403   408    1
   338   404   405    1
   339   404   406    1
   340   404   407    1
   341   409   410    1
   342   409   414    1
   343   410   411    1
   344   410   412    1
   345   410   413    1
   346   415   416    1
   347   415   420    1
   348   416   417    1
   349   416   418    1
   350   416   419    1
   351   421   422    1
   352   421   426    1
   353   422   423    1
   354   422   424    1
   355   422   425    1
   356   427   428    1
   357   427   432    1
   358   428   429    1
   359   428   430    1
   360   428   431    1
   361   433   434    1
   362   433   438    1
   363   434   435    1
   364   434   436    1
   365   434   437    1
   366   439   440    1
   367   439   444    1
   368   440   441    1
   369   440   442    1
   370   440   443    1
   371   445   446    1
   372   445   450    1
   373   446   447    1
   374   446   448    1
   375   446   449    1
   376   451   452    1
   377   451   456    1
   378   452   453    1
   379   452   454    1
   380   452   455    1
   381   457   458    1
   382   457   462    1
   383   458   459    1
   384   458   460    1
   385   458   461    1
   386   463   464    1
   387   463   468    1
   388   464   465    1
   389   464   466    1
   390   464   467    1
   391   469   470    1
   392   469   474    1
   393   470   471    1
   394   470   472    1
   395   470   473    1
   396   475   476    1
   397   475   480    1
   398   476   477    1
   399   476   478    1
   400   476   479    1
   401   481   482    1
   402   481   486    1
   403   482   483    1
   404   482   484    1
   405   482   485    1
   406   487   488    1
   407   487   492    1
   408   488   489    1
   409   488   490    1
   410   488   491    1
   411   493   494    1
   412   493   498    1
   413   494   495    1
   414   494   496    1
   415   494   497    1
   416   499   500    1
   417   499   504    1
   418   500   501    1
   419   500   502    1
   420   500   503    1
   421   505   506    1
   422   505   510    1
   423   506   507    1
   424   506   508    1
   425   506   509    1
   426   511   512    1
   427   511   516    1
   428   512   513    1
   429   512   514    1
   430   512   515    1
   431   517   518    1
   432   517   522    1
   433   518   519    1
   434   518   520    1
   435   518   521    1
   436   523   524    1
   437   523   528    1
   438   524   525    1
   439   524   526    1
   440   524   527    1
   441   529   530    1
   442   529   534    1
   443   530   531    1
   444   530   532    1
   445   530   533    1
   446   535   536    1
   447   535   540    1
   448   536   537    1
   449   536   538    1
   450   536   539    1
   451   541   542    1
   452   541   546    1
   453   542   543    1
   454   542   544    1
   455   542   545    1
   456   547   548    1
   457   547   552    1
   458   548   549    1
   459   548   550    1
   460   548   551    1
   461   553   554    1
   462   553   558    1
   463   554   555    1
   464   554   556    1
   465   554   557    1
   466   559   560    1
   467   559   564    1
   468   560   561    1
   469   560   562    1
   470   560   563    1
   471   565   566    1
   472   565   570    1
   473   566   567    1
   474   566   568    1
   475   566   569    1
   476   571   572    1
   477   571   576    1
   478   572   573    1
   479   572   574    1
   480   572   575    1
   481   577   578    1
   482   577   582    1
   483   578   579    1
   484   578   580    1
   485   578   581    1
   486   583   584    1
   487   583   588    1
   488   584   585    1
   489   584   586    1
   490   584   587    1
   491   589   590    1
   492   589   594    1
   493   590   591    1
   494   590   592    1
   495   590   593    1
   496   595   596    1
   497   595   600    1
   498   596   597    1
   499   596   598    1
   500   596   599    1
   501   601   602    1
   502   601   606    1
   503   602   603    1
   504   602   604    1
   505   602   605    1
   506   607   608    1
   507   607   612    1
   508   608   609    1
   509   608   610    1
   510   608   611    1
   511   613   614    1
   512   613   618    1
   513   614   615    1
   514   614   616    1
   515   614   617    1
   516   619   620    1
   517   619   624    1
   518   620   621    1
   519   620   622    1
   520   620   623    1
   521   625   626    1
   522   625   630    1
   523   626   627    1
   524   626   628    1
   525   626   629    1
   526   631   632    1
   527   631   636    1
   528   632   633    1
   529   632   634    1
   530   632   635    1
   531   637   638    1
   532   637   642    1
   533   638   639    1
   534   638   640    1
   535   638   641    1
   536   643   644    1
   537   643   648    1
   538   644   645    1
   539   644   646    1
   540   644   647    1
   541   649   650    1
   542   649   654    1
   543   650   651    1
   544   650   652    1
   545   650   653    1
   546   655   656    1
   547   655   660    1
   548   656   657    1
   549   656   658    1
   550   656   659    1
   551   661   662    1
   552   661   666    1
   553   662   663    1
   554   662   664    1
   555   662   665    1
   556   667   668    1
   557   667   672    1
   558   668   669    1
   559   668   670    1
   560   668   671    1
   561   673   674    1
   562   673   678    1
   563   674   675    1
   564   674   676    1
   565   674   677    1
   566   679   680    1
   567   679   684    1
   568   680   681    1
   569   680   682    1
   570   680   683    1
   571   685   686    1
   572   685   690    1
   573   686   687    1
   574   686   688    1
   575   686   689    1
   576   691   692    1
   577   691   696    1
   578   692   693    1
   579   692   694    1
   580   692   695    1
   581   697   698    1
   582   697   702    1
   583   698   699    1
   584   698   700    1
   585   698   701    1
   586   703   704    1
   587   703   708    1
   588   704   705    1
   589   704   706    1
   590   704   707    1
   591   709   710    1
   592   709   714    1
   593   710   711    1
   594   710   712    1
   595   710   713    1
   596   715   716    1
   597   715   720    1
   598   716   717    1
   599   716   718    1
   600   716   719    1
   601   721   722    1
   602   721   726    1
   603   722   723    1
   604   722   724    1
   605   722   725    1
   606   727   728    1
   607   727   732    1
   608   728   729    1
   609   728   730    1
   610   728   731    1
   611   733   734    1
   612   733   738    1
   613   734   735    1
   614   734   736    1
   615   734   737    1
   616   739   740    1
   617   739   744    1
   618   740   741    1
   619   740   742    1
   620   740   743    1
   621   745   746    1
   622   745   750    1
   623   746   747    1
   624   746   748    1
   625   746   749    1
   626   751   752    1
   627   751   756    1
   628   752   753    1
   629   752   754    1
   630   752   755    1
   631   757   758    1
   632   757   762    1
   633   758   759    1
   634   758   760    1
   635   758   761    1
   636   763   764    1
   637   763   768    1
   638   764   765    1
   639   764   766    1
   640   764   767    1
   641   769   770    1
   642   769   774    1
   643   770   771    1
   644   770   772    1
   645   770   773    1
   646   775   776    1
   647   775   780    1
   648   776   777    1
   649   776   778    1
   650   776   779    1
   651   781   782    1
   652   781   786    1
   653   782   783    1
   654   782   784    1
   655   782   785    1
   656   787   788    1
   657   787   792    1
   658   788   789    1
   659   788   790    1
   660   788   791    1
   661   793   794    1
   662   793   798    1
   663   794   795    1
   664   794   796    1
   665   794   797    1
   666   799   800    1
   667   799   804    1
   668   800   801    1
   669   800   802    1
   670   800   803    1
   671   805   806    1
   672   805   810    1
   673   806   807    1
   674   806   808    1
   675   806   809    1
   676   811   812    1
   677   811   816    1
   678   812   813    1
   679   812   814    1
   680   812   815    1
   681   817   818    1
   682   817   822    1
   683   818   819    1
   684   818   820    1
   685   818   821    1
   686   823   824    1
   687   823   828    1
   688   824   825    1
   689   824   826    1
   690   824   827    1
   691   829   830    1
   692   829   834    1
   693   830   831    1
   694   830   832    1
   695   830   833    1
   696   835   836    1
   697   835   840    1
   698   836   837    1
   699   836   838    1
   700   836   839    1
   701   841   842    1
   702   841   846    1
   703   842   843    1
   704   842   844    1
   705   842   845    1
   706   847   848    1
   707   847   852    1
   708   848   849    1
   709   848   850    1
   710   848   851    1
   711   853   854    1
   712   853   858    1
   713   854   855    1
   714   854   856    1
   715   854   857    1
   716   859   860    1
   717   859   864    1
   718   860   861    1
   719   860   862    1
   720   860   863    1
   721   865   866    1
   722   865   870    1
   723   866   867    1
   724   866   868    1
   725   866   869    1
   726   871   872    1
   727   871   876    1
   728   872   873    1
   729   872   874    1
   730   872   875    1
   731   877   878    1
   732   877   882    1
   733   878   879    1
   734   878   880    1
   735   878   881    1
   736   883   884    1
   737   883   888    1
   738   884   885    1
   739   884   886    1
   740   884   887    1
   741   889   890    1
   742   889   894    1
   743   890   891    1
   744   890   892    1
   745   890   893    1
   746   895   896    1
   747   895   900    1
   748   896   897    1
   749   896   898    1
   750   896   899    1
   751   901   902    1
   752   901   906    1
   753   902   903    1
   754   902   904    1
   755   902   905    1
   756   907   908    1
   757   907   912    1
   758   908   909    1
   759   908   910    1
   760   908   911    1
   761   913   914    1
   762   913   918    1
   763   914   915    1
   764   914   916    1
   765   914   917    1
   766   919   920    1
   767   919   924    1
   768   920   921    1
   769   920   922    1
   770   920   923    1
   771   925   926    1
   772   925   930    1
   773   926   927    1
   774   926   928    1
   775   926   929    1
   776   931   932    1
   777   931   936    1
   778   932   933    1
   779   932   934    1
   780   932   935    1
   781   937   938    1
   782   937   942    1
   783   938   939    1
   784   938   940    1
   785   938   941    1
   786   943   944    1
   787   943   948    1
   788   944   945    1
   789   944   946    1
   790   944   947    1
   791   949   950    1
   792   949   954    1
   793   950   951    1
   794   950   952    1
   795   950   953    1
   796   955   956    1
   797   955   960    1
   798   956   957    1
   799   956   958    1
   800   956   959    1
   801   961   962    1
   802   961   966    1
   803   962   963    1
   804   962   964    1
   805   962   965    1
   806   967   968    1
   807   967   972    1
   808   968   969    1
   809   968   970    1
   810   968   971    1
   811   973   974    1
   812   973   978    1
   813   974   975    1
   814   974   976    1
   815   974   977    1
   816   979   980    1
   817   979   984    1
   818   980   981    1
   819   980   982    1
   820   980   983    1
   821   985   986    1
   822   985   990    1
   823   986   987    1
   824   986   988    1
   825   986   989    1
   826   991   992    1
   827   991   996    1
   828   992   993    1
   829   992   994    1
   830   992   995    1
   831   997   998    1
   832   997  1002    1
   833   998   999    1
   834   998  1000    1
   835   998  1001    1
   836  1003  1004    1
   837  1003  1008    1
   838  1004  1005    1
   839  1004  1006    1
   840  1004  1007    1
   841  1009  1010    1
   842  1009  1014    1
   843  1010  1011    1
   844  1010  1012    1
   845  1010  1013    1
   846  1015  1016    1
   847  1015  1020    1
   848  1016  1017    1
   849  1016  1018    1
   850  1016  1019    1
   851  1021  1022    1
   852  1021  1026    1
   853  1022  1023    1
   854  1022  1024    1
   855  1022  1025    1
   856  1027  1028    1
   857  1027  1032    1
   858  1028  1029    1
   859  1028  1030    1
   860  1028  1031    1
   861  1033  1034    1
   862  1033  1038    1
   863  1034  1035    1
   864  1034  1036    1
   865  1034  1037    1
   866  1039  1040    1
   867  1039  1044    1
   868  1040  1041    1
   869  1040  1042    1
   870  1040  1043    1
   871  1045  1046    1
   872  1045  1050    1
   873  1046  1047    1
   874  1046  1048    1
   875  1046  1049    1
   876  1051  1052    1
   877  1051  1056    1
   878  1052  1053    1
   879  1052  1054    1
   880  1052  1055    1
   881  1057  1058    1
   882  1057  1062    1
   883  1058  1059    1
   884  1058  1060    1
   885  1058  1061    1
   886  1063  1064    1
   887  1063  1068    1
   888  1064  1065    1
   889  1064  1066    1
   890  1064  1067    1
   891  1069  1070    1
   892  1069  1074    1
   893  1070  1071    1
   894  1070  1072    1
   895  1070  1073    1
   896  1075  1076    1
   897  1075  1080    1
   898  1076  1077    1
   899  1076  1078    1
   900  1076  1079    1
   901  1081  1082    1
   902  1081  1086    1
   903  1082  1083    1
   904  1082  1084    1
   905  1082  1085    1
   906  1087  1088    1
   907  1087  1092    1
   908  1088  1089    1
   909  1088  1090    1
   910  1088  1091    1
   911  1093  1094    1
   912  1093  1098    1
   913  1094  1095    1
   914  1094  1096    1
   915  1094  1097    1
   916  1099  1100    1
   917  1099  1104    1
   918  1100  1101    1
   919  1100  1102    1
   920  1100  1103    1
   921  1105  1106    1
   922  1105  1110    1
   923  1106  1107    1
   924  1106  1108    1
   925  1106  1109    1
   926  1111  1112    1
   927  1111  1116    1
   928  1112  1113    1
   929  1112  1114    1
   930  1112  1115    1
   931  1117  1118    1
   932  1117  1122    1
   933  1118  1119    1
   934  1118  1120    1
   935  1118  1121    1
   936  1123  1124    1
   937  1123  1128    1
   938  1124  1125    1
   939  1124  1126    1
   940  1124  1127    1
   941  1129  1130    1
   942  1129  1134    1
   943  1130  1131    1
   944  1130  1132    1
   945  1130  1133    1
   946  1135  1136    1
   947  1135  1140    1
   948  1136  1137    1
   949  1136  1138    1
   950  1136  1139    1
   951  1141  1142    1
   952  1141  1146    1
   953  1142  1143    1
   954  1142  1144    1
   955  1142  1145    1
   956  1147  1148    1
   957  1147  1152    1
   958  1148  1149    1
   959  1148  1150    1
   960  1148  1151    1
   961  1153  1154    1
   962  1153  1158    1
   963  1154  1155    1
   964  1154  1156    1
   965  1154  1157    1
   966  1159  1160    1
   967  1159  1164    1
   968  1160  1161    1
   969  1160  1162    1
   970  1160  1163    1
   971  1165  1166    1
   972  1165  1170    1
   973  1166  1167    1
   974  1166  1168    1
   975  1166  1169    1
   976  1171  1172    1
   977  1171  1176    1
   978  1172  1173    1
   979  1172  1174    1
   980  1172  1175    1
   981  1177  1178    1
   982  1177  1182    1
   983  1178  1179    1
   984  1178  1180    1
   985  1178  1181    1
   986  1183  1184    1
   987  1183  1188    1
   988  1184  1185    1
   989  1184  1186    1
   990  1184  1187    1
   991  1189  1190    1
   992  1189  1194    1
   993  1190  1191    1
   994  1190  1192    1
   995  1190  1193    1
   996  1195  1196    1
   997  1195  1200    1
   998  1196  1197    1
   999  1196  1198    1
  1000  1196  1199    1
  1001  1201  1202    1
  1002  1201  1206    1
  1003  1202  1203    1
  1004  1202  1204    1
  1005  1202  1205    1
  1006  1207  1208    1
  1007  1207  1212    1
  1008  1208  1209    1
  1009  1208  1210    1
  1010  1208  1211    1
  1011  1213  1214    1
  1012  1213  1218    1
  1013  1214  1215    1
  1014  1214  1216    1
  1015  1214  1217    1
  1016  1219  1220    1
  1017  1219  1224    1
  1018  1220  1221    1
  1019  1220  1222    1
  1020  1220  1223    1
  1021  1225  1226    1
  1022  1225  1230    1
  1023  1226  1227    1
  1024  1226  1228    1
  1025  1226  1229    1
  1026  1231  1232    1
  1027  1231  1236    1
  1028  1232  1233    1
  1029  1232  1234    1
  1030  1232  1235    1
  1031  1237  1238    1
  1032  1237  1242    1
  1033  1238  1239    1
  1034  1238  1240    1
  1035  1238  1241    1
  1036  1243  1244    1
  1037  1243  1248    1
  1038  1244  1245    1
  1039  1244  1246    1
  1040  1244  1247    1
  1041  1249  1250    1
  1042  1249  1254    1
  1043  1250  1251    1
  1044  1250  1252    1
  1045  1250  1253    1
  1046  1255  1256    1
  1047  1255  1260    1
  1048  1256  1257    1
  1049  1256  1258    1
  1050  1256  1259    1
  1051  1261  1262    1
  1052  1261  1266    1
  1053  1262  1263    1
  1054  1262  1264    1
  1055  1262  1265    1
  1056  1267  1268    1
  1057  1267  1272    1
  1058  1268  1269    1
  1059  1268  1270    1
  1060  1268  1271    1
  1061  1273  1274    1
  1062  1273  1278    1
  1063  1274  1275    1
  1064  1274  1276    1
  1065  1274  1277    1
  1066  1279  1280    1
  1067  1279  1284    1
  1068  1280  1281    1
  1069  1280  1282    1
  1070  1280  1283    1
  1071  1285  1286    1
  1072  1285  1290    1
  1073  1286  1287    1
  1074  1286  1288    1
  1075  1286  1289    1
  1076  1291  1292    1
  1077  1291  1296    1
  1078  1292  1293    1
  1079  1292  1294    1
  1080  1292  1295    1
  1081  1297  1298    1
  1082  1297  1302    1
  1083  1298  1299    1
  1084  1298  1300    1
  1085  1298  1301    1
  1086  1303  1304    1
  1087  1303  1308    1
  1088  1304  1305    1
  1089  1304  1306    1
  1090  1304  1307    1
  1091  1309  1310    1
  1092  1309  1314    1
  1093  1310  1311    1
  1094  1310  1312    1
  1095  1310  1313    1
  1096  1315  1316    1
  1097  1315  1320    1
  1098  1316  1317    1
  1099  1316  1318    1
  1100  1316  1319    1
  1101  1321  1322    1
  1102  1321  1326    1
  1103  1322  1323    1
  1104  1322  1324    1
  1105  1322  1325    1
  1106  1327  1328    1
  1107  1327  1332    1
  1108  1328  1329    1
  1109  1328  1330    1
  1110  1328  1331    1
  1111  1333  1334    1
  1112  1333  1338    1
  1113  1334  1335    1
  1114  1334  1336    1
  1115  1334  1337    1
  1116  1339  1340    1
  1117  1339  1344    1
  1118  1340  1341    1
  1119  1340  1342    1
  1120  1340  1343    1
  1121  1345  1346    1
  1122  1345  1350    1
  1123  1346  1347    1
  1124  1346  1348    1
  1125  1346  1349    1
  1126  1351  1352    1
  1127  1351  1356    1
  1128  1352  1353    1
  1129  1352  1354    1
  1130  1352  1355    1
  1131  1357  1358    1
  1132  1357  1362    1
  1133  1358  1359    1
  1134  1358  1360    1
  1135  1358  1361    1
  1136  1363  1364    1
  1137  1363  1368    1
  1138  1364  1365    1
  1139  1364  1366    1
  1140  1364  1367    1
  1141  1369  1370    1
  1142  1369  1374    1
  1143  1370  1371    1
  1144  1370  1372    1
  1145  1370  1373    1
  1146  1375  1376    1
  1147  1375  1380    1
  1148  1376  1377    1
  1149  1376  1378    1
  1150  1376  1379    1
  1151  1381  1382    1
  1152  1381  1386    1
  1153  1382  1383    1
  1154  1382  1384    1
  1155  1382  1385    1
  1156  1387  1388    1
  1157  1387  1392    1
  1158  1388  1389    1
  1159  1388  1390    1
  1160  1388  1391    1
  1161  1393  1394    1
  1162  1393  1398    1
  1163  1394  1395    1
  1164  1394  1396    1
  1165  1394  1397    1
  1166  1399  1400    1
  1167  1399  1404    1
  1168  1400  1401    1
  1169  1400  1402    1
  1170  1400  1403    1
  1171  1405  1406    1
  1172  1405  1410    1
  1173  1406  1407    1
  1174  1406  1408    1
  1175  1406  1409    1
  1176  1411  1412    1
  1177  1411  1416    1
  1178  1412  1413    1
  1179  1412  1414    1
  1180  1412  1415    1
  1181  1417  1418    1
  1182  1417  1422    1
  1183  1418  1419    1
  1184  1418  1420    1
  1185  1418  1421    1
  1186  1423  1424    1
  1187  1423  1428    1
  1188  1424  1425    1
  1189  1424  1426    1
  1190  1424  1427    1
  1191  1429  1430    1
  1192  1429  1434    1
  1193  1430  1431    1
  1194  1430  1432    1
  1195  1430  1433    1
  1196  1435  1436    1
  1197  1435  1440    1
  1198  1436  1437    1
  1199  1436  1438    1
  1200  1436  1439    1
  1201  1441  1442    1
  1202  1441  1446    1
  1203  1442  1443    1
  1204  1442  1444    1
  1205  1442  1445    1
  1206  1447  1448    1
  1207  1447  1452    1
  1208  1448  1449    1
  1209  1448  1450    1
  1210  1448  1451    1
  1211  1453  1454    1
  1212  1453  1458    1
  1213  1454  1455    1
  1214  1454  1456    1
  1215  1454  1457    1
  1216  1459  1460    1
  1217  1459  1464    1
  1218  1460  1461    1
  1219  1460  1462    1
  1220  1460  1463    1
  1221  1465  1466    1
  1222  1465  1470    1
  1223  1466  1467    1
  1224  1466  1468    1
  1225  1466  1469    1
  1226  1471  1472    1
  1227  1471  1476    1
  1228  1472  1473    1
  1229  1472  1474    1
  1230  1472  1475    1
  1231  1477  1478    1
  1232  1477  1482    1
  1233  1478  1479    1
  1234  1478  1480    1
  1235  1478  1481    1
  1236  1483  1484    1
  1237  1483  1488    1
  1238  1484  1485    1
  1239  1484  1486    1
  1240  1484  1487    1
  1241  1489  1490    1
  1242  1489  1494    1
  1243  1490  1491    1
  1244  1490  1492    1
  1245  1490  1493    1
  1246  1495  1496    1
  1247  1495  1500    1
  1248  1496  1497    1
  1249  1496  1498    1
  1250  1496  1499    1
  1251  1501  1502    1
  1252  1501  1506    1
  1253  1502  1503    1
  1254  1502  1504    1
  1255  1502  1505    1
  1256  1507  1508    1
  1257  1507  1512    1
  1258  1508  1509    1
  1259  1508  1510    1
  1260  1508  1511    1
  1261  1513  1514    1
  1262  1513  1518    1
  1263  1514  1515    1
  1264  1514  1516    1
  1265  1514  1517    1
  1266  1519  1520    1
  1267  1519  1524    1
  1268  1520  1521    1
  1269  1520  1522    1
  1270  1520  1523    1
  1271  1525  1526    1
  1272  1525  1530    1
  1273  1526  1527    1
  1274  1526  1528    1
  1275  1526  1529    1
  1276  1531  1532    1
  1277  1531  1536    1
  1278  1532  1533    1
  1279  1532  1534    1
  1280  1532  1535    1
  1281  1537  1538    1
  1282  1537  1542    1
  1283  1538  1539    1
  1284  1538  1540    1
  1285  1538  1541    1
  1286  1543  1544    1
  1287  1543  1548    1
  1288  1544  1545    1
  1289  1544  1546    1
  1290  1544  1547    1
  1291  1549  1550    1
  1292  1549  1554    1
  1293  1550  1551    1
  1294  1550  1552    1
  1295  1550  1553    1
  1296  1555  1556    1
  1297  1555  1560    1
  1298  1556  1557    1
  1299  1556  1558    1
  1300  1556  1559    1
  1301  1561  1562    1
  1302  1561  1566    1
  1303  1562  1563    1
  1304  1562  1564    1
  1305  1562  1565    1
  1306  1567  1568    1
  1307  1567  1572    1
  1308  1568  1569    1
  1309  1568  1570    1
  1310  1568  1571    1
  1311  1573  1574    1
  1312  1573  1578    1
  1313  1574  1575    1
  1314  1574  1576    1
  1315  1574  1577    1
  1316  1579  1580    1
  1317  1579  1584    1
  1318  1580  1581    1
  1319  1580  1582    1
  1320  1580  1583    1
  1321  1585  1586    1
  1322  1585  1590    1
  1323  1586  1587    1
  1324  1586  1588    1
  1325  1586  1589    1
  1326  1591  1592    1
  1327  1591  1596    1
  1328  1592  1593    1
  1329  1592  1594    1
  1330  1592  1595    1
  1331  1597  1598    1
  1332  1597  1602    1
  1333  1598  1599    1
  1334  1598  1600    1
  1335  1598  1601    1
  1336  1603  1604    1
  1337  1603  1608    1
  1338  1604  1605    1
  1339  1604  1606    1
  1340  1604  1607    1
  1341  1609  1610    1
  1342  1609  1614    1
  1343  1610  1611    1
  1344  1610  1612    1
  1345  1610  1613    1
  1346  1615  1616    1
  1347  1615  1620    1
  1348  1616  1617    1
  1349  1616  1618    1
  1350  1616  1619    1
  1351  1621  1622    1
  1352  1621  1626    1
  1353  1622  1623    1
  1354  1622  1624    1
  1355  1622  1625    1
  1356  1627  1628    1
  1357  1627  1632    1
  1358  1628  1629    1
  1359  1628  1630    1
  1360  1628  1631    1
