@<TRIPOS>MOLECULE
*****
 570 475 0 0 0
SMALL
GASTEIGER

@<TRIPOS>ATOM
      1 O          -2.1560   -0.6783    2.5602 O.3     1  UNL1       -0.3982
      2 C          -1.0331   -0.1194    1.9036 C.3     1  UNL1        0.0330
      3 H          -0.1899   -0.8116    1.9687 H       1  UNL1        0.0521
      4 H          -0.7731    0.8332    2.3715 H       1  UNL1        0.0521
      5 H          -1.2831    0.0491    0.8535 H       1  UNL1        0.0521
      6 H          -1.9042   -0.8165    3.4892 H       1  UNL1        0.2090
      7 O          -0.4447    0.6451    8.8018 O.3     2  UNL2       -0.3982
      8 C          -1.1660    1.0707    7.6603 C.3     2  UNL2        0.0330
      9 H          -2.2200    0.8052    7.7742 H       2  UNL2        0.0521
     10 H          -0.7533    0.5929    6.7684 H       2  UNL2        0.0521
     11 H          -1.0738    2.1552    7.5657 H       2  UNL2        0.0521
     12 H          -0.5449   -0.3204    8.8596 H       2  UNL2        0.2090
     13 O          -1.5530    0.7014   17.5030 O.3     3  UNL3       -0.3982
     14 C          -0.3775    0.1843   16.9068 C.3     3  UNL3        0.0330
     15 H          -0.4393    0.2951   15.8214 H       3  UNL3        0.0521
     16 H          -0.2679   -0.8704   17.1705 H       3  UNL3        0.0521
     17 H           0.4848    0.7422   17.2793 H       3  UNL3        0.0521
     18 H          -2.3006    0.1870   17.1536 H       3  UNL3        0.2090
     19 O          -0.8978   -0.4037   32.6518 O.3     4  UNL4       -0.3982
     20 C          -0.9810   -0.5900   31.2508 C.3     4  UNL4        0.0330
     21 H          -0.1996   -1.2821   30.9272 H       4  UNL4        0.0521
     22 H          -0.8619    0.3721   30.7467 H       4  UNL4        0.0521
     23 H          -1.9599   -1.0087   31.0055 H       4  UNL4        0.0521
     24 H          -0.0192   -0.0316   32.8388 H       4  UNL4        0.2090
     25 O          -0.2349    1.8284   28.8940 O.3     5  UNL5       -0.3982
     26 C          -0.5993    3.1698   28.6249 C.3     5  UNL5        0.0330
     27 H          -1.0798    3.2283   27.6451 H       5  UNL5        0.0521
     28 H           0.2923    3.8012   28.6437 H       5  UNL5        0.0521
     29 H          -1.2992    3.5086   29.3924 H       5  UNL5        0.0521
     30 H           0.3861    1.5558   28.1971 H       5  UNL5        0.2090
     31 O          -0.1120    4.0742    2.3721 O.3     6  UNL6       -0.3982
     32 C          -1.1055    4.7665    3.1057 C.3     6  UNL6        0.0330
     33 H          -1.2579    4.2738    4.0692 H       6  UNL6        0.0521
     34 H          -2.0388    4.7760    2.5376 H       6  UNL6        0.0521
     35 H          -0.7728    5.7936    3.2728 H       6  UNL6        0.0521
     36 H          -0.4352    3.1668    2.2394 H       6  UNL6        0.2090
     37 O           2.6167   -1.5611    7.9874 O.3     7  UNL7       -0.3982
     38 C           2.5231   -0.1553    7.8476 C.3     7  UNL7        0.0330
     39 H           1.5783    0.1920    8.2730 H       7  UNL7        0.0521
     40 H           2.5782    0.1109    6.7892 H       7  UNL7        0.0521
     41 H           3.3541    0.3109    8.3820 H       7  UNL7        0.0521
     42 H           1.8668   -1.9469    7.5032 H       7  UNL7        0.2090
     43 O           0.4889   -1.6301   14.9479 O.3     8  UNL8       -0.3982
     44 C           0.3269   -1.1703   13.6186 C.3     8  UNL8        0.0330
     45 H          -0.1120   -0.1696   13.6292 H       8  UNL8        0.0521
     46 H          -0.3214   -1.8584   13.0707 H       8  UNL8        0.0521
     47 H           1.3055   -1.1316   13.1344 H       8  UNL8        0.0521
     48 H          -0.3953   -1.6540   15.3517 H       8  UNL8        0.2090
     49 O           2.3844   -0.5911   17.3139 O.3     9  UNL9       -0.3982
     50 C           2.4508   -0.2695   15.9368 C.3     9  UNL9        0.0330
     51 H           3.2900    0.4077   15.7598 H       9  UNL9        0.0521
     52 H           1.5156    0.2031   15.6266 H       9  UNL9        0.0521
     53 H           2.5996   -1.1880   15.3642 H       9  UNL9        0.0521
     54 H           2.2520    0.2429   17.7960 H       9  UNL9        0.2090
     55 O           1.6479   -0.5831   19.7669 O.3    10  UNL10      -0.3982
     56 C           0.3165   -1.0627   19.8102 C.3    10  UNL10       0.0330
     57 H           0.1018   -1.4552   20.8073 H      10  UNL10       0.0521
     58 H           0.1868   -1.8484   19.0620 H      10  UNL10       0.0521
     59 H          -0.3656   -0.2378   19.5912 H      10  UNL10       0.0521
     60 H           2.2296   -1.3367   19.9650 H      10  UNL10       0.2090
     61 O           1.2532   -0.8363   24.7641 O.3    11  UNL11      -0.3982
     62 C           1.2693    0.5666   24.9544 C.3    11  UNL11       0.0330
     63 H           1.7963    0.8034   25.8820 H      11  UNL11       0.0521
     64 H           0.2436    0.9407   24.9998 H      11  UNL11       0.0521
     65 H           1.7881    1.0332   24.1138 H      11  UNL11       0.0521
     66 H           0.7868   -1.2225   25.5249 H      11  UNL11       0.2090
     67 O           2.0686   -0.7014   27.4309 O.3    12  UNL12      -0.3982
     68 C           1.4436   -0.8958   28.6864 C.3    12  UNL12       0.0330
     69 H           1.9918   -1.6517   29.2542 H      12  UNL12       0.0521
     70 H           0.4104   -1.2172   28.5341 H      12  UNL12       0.0521
     71 H           1.4519    0.0477   29.2372 H      12  UNL12       0.0521
     72 H           2.0461   -1.5548   26.9654 H      12  UNL12       0.2090
     73 O           2.7516   -1.5311   31.2175 O.3    13  UNL13      -0.3982
     74 C           2.4442   -0.1636   31.4172 C.3    13  UNL13       0.0330
     75 H           2.8423    0.4253   30.5871 H      13  UNL13       0.0521
     76 H           2.8805    0.1748   32.3601 H      13  UNL13       0.0521
     77 H           1.3589   -0.0456   31.4572 H      13  UNL13       0.0521
     78 H           3.7207   -1.6045   31.1863 H      13  UNL13       0.2090
     79 O           1.6892    1.4746   -0.4841 O.3    14  UNL14      -0.3982
     80 C           0.5426    2.1239    0.0337 C.3    14  UNL14       0.0330
     81 H           0.0457    1.4689    0.7536 H      14  UNL14       0.0521
     82 H          -0.1395    2.3680   -0.7844 H      14  UNL14       0.0521
     83 H           0.8514    3.0445    0.5345 H      14  UNL14       0.0521
     84 H           1.3839    0.6620   -0.9223 H      14  UNL14       0.2090
     85 O           1.8427    1.2719    1.9738 O.3    15  UNL15      -0.3982
     86 C           1.5416    1.5508    3.3288 C.3    15  UNL15       0.0330
     87 H           2.0668    0.8413    3.9732 H      15  UNL15       0.0521
     88 H           0.4632    1.4735    3.4867 H      15  UNL15       0.0521
     89 H           1.8703    2.5657    3.5643 H      15  UNL15       0.0521
     90 H           1.5398    0.3655    1.7945 H      15  UNL15       0.2090
     91 O           0.9809    2.0981    6.2733 O.3    16  UNL16      -0.3982
     92 C           0.0177    2.9156    5.6342 C.3    16  UNL16       0.0330
     93 H          -0.8793    2.3276    5.4246 H      16  UNL16       0.0521
     94 H           0.4332    3.3102    4.7038 H      16  UNL16       0.0521
     95 H          -0.2397    3.7454    6.2965 H      16  UNL16       0.0521
     96 H           1.1894    1.3711    5.6621 H      16  UNL16       0.2090
     97 O           2.2391    3.3152    7.9897 O.3    17  UNL17      -0.3982
     98 C           1.0023    3.7190    8.5481 C.3    17  UNL17       0.0330
     99 H           1.1816    4.2568    9.4824 H      17  UNL17       0.0521
    100 H           0.3815    2.8394    8.7350 H      17  UNL17       0.0521
    101 H           0.4924    4.3789    7.8424 H      17  UNL17       0.0521
    102 H           2.6682    2.7312    8.6380 H      17  UNL17       0.2090
    103 O           1.6396    2.1266   10.3861 O.3    18  UNL18      -0.3982
    104 C           0.6550    2.7171   11.2146 C.3    18  UNL18       0.0330
    105 H           0.3580    2.0080   11.9913 H      18  UNL18       0.0521
    106 H          -0.2115    2.9959   10.6101 H      18  UNL18       0.0521
    107 H           1.0736    3.6116   11.6818 H      18  UNL18       0.0521
    108 H           1.2394    1.3361    9.9857 H      18  UNL18       0.2090
    109 O           1.4257    1.7109   14.2045 O.3    19  UNL19      -0.3982
    110 C           1.4608    3.1085   13.9811 C.3    19  UNL19       0.0330
    111 H           0.4507    3.4709   13.7745 H      19  UNL19       0.0521
    112 H           2.1177    3.3268   13.1356 H      19  UNL19       0.0521
    113 H           1.8467    3.6018   14.8762 H      19  UNL19       0.0521
    114 H           1.0794    1.3005   13.3938 H      19  UNL19       0.2090
    115 O           0.0544    2.5056   16.1379 O.3    20  UNL20      -0.3982
    116 C          -0.2610    3.8479   16.4592 C.3    20  UNL20       0.0330
    117 H          -1.2839    3.9017   16.8401 H      20  UNL20       0.0521
    118 H          -0.1599    4.4704   15.5669 H      20  UNL20       0.0521
    119 H           0.4306    4.2012   17.2276 H      20  UNL20       0.0521
    120 H          -0.5754    2.2199   15.4543 H      20  UNL20       0.2090
    121 O           1.8255    2.3422   19.3923 O.3    21  UNL21      -0.3982
    122 C           0.4129    2.3507   19.2983 C.3    21  UNL21       0.0330
    123 H           0.0056    1.4931   19.8395 H      21  UNL21       0.0521
    124 H           0.1166    2.3061   18.2474 H      21  UNL21       0.0521
    125 H           0.0328    3.2734   19.7429 H      21  UNL21       0.0521
    126 H           2.1337    1.5123   18.9900 H      21  UNL21       0.2090
    127 O           0.6182    3.4071   22.2433 O.3    22  UNL22      -0.3982
    128 C           0.2275    2.0589   22.4287 C.3    22  UNL22       0.0330
    129 H           1.1009    1.4091   22.3335 H      22  UNL22       0.0521
    130 H          -0.5231    1.7902   21.6814 H      22  UNL22       0.0521
    131 H          -0.2000    1.9471   23.4278 H      22  UNL22       0.0521
    132 H           0.9934    3.4754   21.3489 H      22  UNL22       0.2090
    133 O           0.5381    3.9515   24.8335 O.3    23  UNL23      -0.3982
    134 C           0.9147    3.8863   26.1967 C.3    23  UNL23       0.0330
    135 H           1.9531    4.2090   26.3047 H      23  UNL23       0.0521
    136 H           0.8010    2.8614   26.5583 H      23  UNL23       0.0521
    137 H           0.2674    4.5486   26.7763 H      23  UNL23       0.0521
    138 H           1.1294    3.3540   24.3448 H      23  UNL23       0.2090
    139 O           3.3161    3.5200   28.0393 O.3    24  UNL24      -0.3982
    140 C           3.1208    2.1450   28.3142 C.3    24  UNL24       0.0330
    141 H           4.0381    1.7219   28.7310 H      24  UNL24       0.0521
    142 H           2.8520    1.6229   27.3927 H      24  UNL24       0.0521
    143 H           2.3109    2.0393   29.0398 H      24  UNL24       0.0521
    144 H           4.0401    3.5821   27.3931 H      24  UNL24       0.2090
    145 O           1.4728    3.5286   32.2834 O.3    25  UNL25      -0.3982
    146 C           1.3326    2.6795   31.1591 C.3    25  UNL25       0.0330
    147 H           2.3065    2.2603   30.8944 H      25  UNL25       0.0521
    148 H           0.9288    3.2496   30.3190 H      25  UNL25       0.0521
    149 H           0.6452    1.8683   31.4101 H      25  UNL25       0.0521
    150 H           2.0878    4.2381   32.0306 H      25  UNL25       0.2090
    151 O           1.6007    1.6363   33.9056 O.3    26  UNL26      -0.3982
    152 C           0.3460    2.2029   34.2357 C.3    26  UNL26       0.0330
    153 H          -0.2307    1.4914   34.8318 H      26  UNL26       0.0521
    154 H          -0.1956    2.4501   33.3194 H      26  UNL26       0.0521
    155 H           0.5092    3.1136   34.8167 H      26  UNL26       0.0521
    156 H           1.4237    0.8306   33.3907 H      26  UNL26       0.2090
    157 O           4.5438    5.3237   10.6517 O.3    27  UNL27      -0.3982
    158 C           3.3278    4.6068   10.5423 C.3    27  UNL27       0.0330
    159 H           3.0103    4.2729   11.5332 H      27  UNL27       0.0521
    160 H           3.4691    3.7462    9.8840 H      27  UNL27       0.0521
    161 H           2.5644    5.2644   10.1199 H      27  UNL27       0.0521
    162 H           5.2014    4.7149   11.0291 H      27  UNL27       0.2090
    163 O           3.2292    5.1523   19.1985 O.3    28  UNL28      -0.3982
    164 C           1.8671    5.5389   19.1974 C.3    28  UNL28       0.0330
    165 H           1.2670    4.7637   19.6802 H      28  UNL28       0.0521
    166 H           1.5305    5.6874   18.1685 H      28  UNL28       0.0521
    167 H           1.7630    6.4749   19.7511 H      28  UNL28       0.0521
    168 H           3.2902    4.3195   18.7002 H      28  UNL28       0.2090
    169 O           4.9774   -0.6266   -0.4722 O.3    29  UNL29      -0.3982
    170 C           3.6918   -0.0434   -0.3636 C.3    29  UNL29       0.0330
    171 H           3.5959    0.4516    0.6059 H      29  UNL29       0.0521
    172 H           2.9291   -0.8192   -0.4657 H      29  UNL29       0.0521
    173 H           3.5676    0.6937   -1.1604 H      29  UNL29       0.0521
    174 H           5.0583   -1.2758    0.2472 H      29  UNL29       0.2090
    175 O           5.9372    0.0984    3.8153 O.3    30  UNL30      -0.3982
    176 C           5.4797   -0.3044    2.5374 C.3    30  UNL30       0.0330
    177 H           5.6781   -1.3699    2.3976 H      30  UNL30       0.0521
    178 H           5.9915    0.2767    1.7664 H      30  UNL30       0.0521
    179 H           4.4041   -0.1246    2.4721 H      30  UNL30       0.0521
    180 H           6.8939   -0.0729    3.8434 H      30  UNL30       0.2090
    181 O           6.9672    0.4949    8.4058 O.3    31  UNL31      -0.3982
    182 C           5.9654   -0.0044    7.5390 C.3    31  UNL31       0.0330
    183 H           5.6070   -0.9674    7.9113 H      31  UNL31       0.0521
    184 H           6.3771   -0.1208    6.5336 H      31  UNL31       0.0521
    185 H           5.1347    0.7046    7.5103 H      31  UNL31       0.0521
    186 H           7.6906   -0.1549    8.4108 H      31  UNL31       0.2090
    187 O           5.6890   -0.2519   11.5163 O.3    32  UNL32      -0.3982
    188 C           5.3924   -0.8270   10.2570 C.3    32  UNL32       0.0330
    189 H           4.7471   -1.6979   10.3960 H      32  UNL32       0.0521
    190 H           6.3209   -1.1233    9.7630 H      32  UNL32       0.0521
    191 H           4.8748   -0.0873    9.6417 H      32  UNL32       0.0521
    192 H           6.1475   -0.9312   12.0397 H      32  UNL32       0.2090
    193 O           4.7274    0.5242   17.2255 O.3    33  UNL33      -0.3982
    194 C           5.8818   -0.2714   17.0284 C.3    33  UNL33       0.0330
    195 H           6.7180    0.1526   17.5899 H      33  UNL33       0.0521
    196 H           6.1242   -0.3057   15.9634 H      33  UNL33       0.0521
    197 H           5.6811   -1.2837   17.3868 H      33  UNL33       0.0521
    198 H           4.9357    1.4159   16.8983 H      33  UNL33       0.2090
    199 O           5.6461    0.1567   19.8913 O.3    34  UNL34      -0.3982
    200 C           4.2490   -0.0527   19.7975 C.3    34  UNL34       0.0330
    201 H           3.8223   -0.1256   20.8009 H      34  UNL34       0.0521
    202 H           4.0541   -0.9718   19.2395 H      34  UNL34       0.0521
    203 H           3.7975    0.7923   19.2724 H      34  UNL34       0.0521
    204 H           6.0188   -0.6086   20.3613 H      34  UNL34       0.2090
    205 O           5.5124   -0.6498   25.4638 O.3    35  UNL35      -0.3982
    206 C           4.1613   -0.9263   25.1436 C.3    35  UNL35       0.0330
    207 H           3.7736   -1.6893   25.8231 H      35  UNL35       0.0521
    208 H           4.0950   -1.2757   24.1104 H      35  UNL35       0.0521
    209 H           3.5754   -0.0108   25.2546 H      35  UNL35       0.0521
    210 H           6.0072   -1.4800   25.3561 H      35  UNL35       0.2090
    211 O           5.1553    0.8784   32.1205 O.3    36  UNL36      -0.3982
    212 C           5.4390    0.3509   30.8376 C.3    36  UNL36       0.0330
    213 H           5.5041   -0.7384   30.8967 H      36  UNL36       0.0521
    214 H           6.3829    0.7638   30.4735 H      36  UNL36       0.0521
    215 H           4.6342    0.6291   30.1531 H      36  UNL36       0.0521
    216 H           5.8863    0.6156   32.7054 H      36  UNL36       0.2090
    217 O           5.9124    2.2824    0.3850 O.3    37  UNL37      -0.3982
    218 C           4.6899    2.9235    0.0707 C.3    37  UNL37       0.0330
    219 H           3.8554    2.3088    0.4171 H      37  UNL37       0.0521
    220 H           4.6228    3.0723   -1.0098 H      37  UNL37       0.0521
    221 H           4.6581    3.8935    0.5724 H      37  UNL37       0.0521
    222 H           5.9117    1.4251   -0.0740 H      37  UNL37       0.2090
    223 O           4.6028    2.0922    2.9098 O.3    38  UNL38      -0.3982
    224 C           4.4004    3.4553    3.2349 C.3    38  UNL38       0.0330
    225 H           3.3928    3.5894    3.6361 H      38  UNL38       0.0521
    226 H           4.5321    4.0677    2.3395 H      38  UNL38       0.0521
    227 H           5.1330    3.7534    3.9885 H      38  UNL38       0.0521
    228 H           3.9388    1.8568    2.2395 H      38  UNL38       0.2090
    229 O           5.0128    2.1980    5.5003 O.3    39  UNL39      -0.3982
    230 C           3.6574    1.9222    5.8025 C.3    39  UNL39       0.0330
    231 H           3.5448    1.7819    6.8804 H      39  UNL39       0.0521
    232 H           3.3411    1.0209    5.2719 H      39  UNL39       0.0521
    233 H           3.0428    2.7663    5.4809 H      39  UNL39       0.0521
    234 H           5.5332    1.4320    5.7968 H      39  UNL39       0.2090
    235 O           6.5759    3.0629    7.7872 O.3    40  UNL40      -0.3982
    236 C           5.3256    3.1798    8.4411 C.3    40  UNL40       0.0330
    237 H           5.1005    2.2492    8.9680 H      40  UNL40       0.0521
    238 H           4.5467    3.3916    7.7046 H      40  UNL40       0.0521
    239 H           5.3763    4.0003    9.1607 H      40  UNL40       0.0521
    240 H           6.5003    2.3276    7.1555 H      40  UNL40       0.2090
    241 O           4.9679    2.4080   11.1884 O.3    41  UNL41      -0.3982
    242 C           3.8767    1.6504   11.6780 C.3    41  UNL41       0.0330
    243 H           4.1879    1.0925   12.5647 H      41  UNL41       0.0521
    244 H           3.5334    0.9612   10.9027 H      41  UNL41       0.0521
    245 H           3.0636    2.3297   11.9445 H      41  UNL41       0.0521
    246 H           5.6732    1.7787   10.9604 H      41  UNL41       0.2090
    247 O           5.4374    2.1935   15.0151 O.3    42  UNL42      -0.3982
    248 C           4.5582    2.8526   14.1222 C.3    42  UNL42       0.0330
    249 H           3.6425    2.2665   14.0120 H      42  UNL42       0.0521
    250 H           5.0458    2.9725   13.1517 H      42  UNL42       0.0521
    251 H           4.3118    3.8366   14.5278 H      42  UNL42       0.0521
    252 H           5.6380    1.3240   14.6288 H      42  UNL42       0.2090
    253 O           3.9587    4.0309   16.6556 O.3    43  UNL43      -0.3982
    254 C           3.0878    2.9427   16.9044 C.3    43  UNL43       0.0330
    255 H           3.4833    2.3383   17.7245 H      43  UNL43       0.0521
    256 H           2.9956    2.3348   16.0011 H      43  UNL43       0.0521
    257 H           2.1048    3.3306   17.1818 H      43  UNL43       0.0521
    258 H           4.8222    3.6558   16.4120 H      43  UNL43       0.2090
    259 O           5.8787    4.0093   18.7231 O.3    44  UNL44      -0.3982
    260 C           5.8405    2.6238   19.0119 C.3    44  UNL44       0.0330
    261 H           6.4712    2.4139   19.8794 H      44  UNL44       0.0521
    262 H           6.1951    2.0602   18.1454 H      44  UNL44       0.0521
    263 H           4.8105    2.3354   19.2346 H      44  UNL44       0.0521
    264 H           6.8044    4.2354   18.5296 H      44  UNL44       0.2090
    265 O           4.9874    2.1241   21.5640 O.3    45  UNL45      -0.3982
    266 C           3.6383    2.5357   21.4415 C.3    45  UNL45       0.0330
    267 H           3.3616    3.1430   22.3069 H      45  UNL45       0.0521
    268 H           2.9925    1.6565   21.3784 H      45  UNL45       0.0521
    269 H           3.5297    3.1309   20.5318 H      45  UNL45       0.0521
    270 H           5.0528    1.5985   22.3795 H      45  UNL45       0.2090
    271 O           4.1356    1.7881   24.2365 O.3    46  UNL46      -0.3982
    272 C           3.4540    2.8567   24.8673 C.3    46  UNL46       0.0330
    273 H           2.5300    2.4854   25.3176 H      46  UNL46       0.0521
    274 H           3.2272    3.6309   24.1303 H      46  UNL46       0.0521
    275 H           4.0942    3.2755   25.6472 H      46  UNL46       0.0521
    276 H           3.5432    1.4369   23.5499 H      46  UNL46       0.2090
    277 O           6.4492    1.8116   28.4983 O.3    47  UNL47      -0.3982
    278 C           6.6648    3.2079   28.5888 C.3    47  UNL47       0.0330
    279 H           5.7089    3.7163   28.7372 H      47  UNL47       0.0521
    280 H           7.1406    3.5641   27.6718 H      47  UNL47       0.0521
    281 H           7.3195    3.4120   29.4392 H      47  UNL47       0.0521
    282 H           5.8654    1.6614   27.7353 H      47  UNL47       0.2090
    283 O           5.9654    3.4385   31.4889 O.3    48  UNL48      -0.3982
    284 C           4.5835    3.4890   31.1853 C.3    48  UNL48       0.0330
    285 H           4.0920    2.5918   31.5696 H      48  UNL48       0.0521
    286 H           4.4495    3.5555   30.1028 H      48  UNL48       0.0521
    287 H           4.1476    4.3718   31.6590 H      48  UNL48       0.0521
    288 H           6.3244    2.6456   31.0554 H      48  UNL48       0.2090
    289 O           5.3176    3.0163   34.1022 O.3    49  UNL49      -0.3982
    290 C           3.9128    2.9695   34.2720 C.3    49  UNL49       0.0330
    291 H           3.6422    2.0706   34.8317 H      49  UNL49       0.0521
    292 H           3.4266    2.9624   33.2935 H      49  UNL49       0.0521
    293 H           3.5926    3.8531   34.8291 H      49  UNL49       0.0521
    294 H           5.5719    2.2202   33.6050 H      49  UNL49       0.2090
    295 O           6.6037    4.6825   21.5306 O.3    50  UNL50      -0.3982
    296 C           5.3088    4.8974   22.0612 C.3    50  UNL50       0.0330
    297 H           5.1597    4.2546   22.9323 H      50  UNL50       0.0521
    298 H           4.5597    4.6740   21.2977 H      50  UNL50       0.0521
    299 H           5.2175    5.9434   22.3630 H      50  UNL50       0.0521
    300 H           6.6548    3.7466   21.2718 H      50  UNL50       0.2090
    301 O           9.4203    0.5263    3.5525 O.3    51  UNL51      -0.3982
    302 C           8.8114    0.0061    2.3850 C.3    51  UNL51       0.0330
    303 H           8.4071   -0.9872    2.5954 H      51  UNL51       0.0521
    304 H           9.5508   -0.0523    1.5825 H      51  UNL51       0.0521
    305 H           7.9993    0.6708    2.0815 H      51  UNL51       0.0521
    306 H          10.1364   -0.0843    3.7975 H      51  UNL51       0.2090
    307 O          11.1724    0.6947    8.9512 O.3    52  UNL52      -0.3982
    308 C          10.0527    0.5463    8.0975 C.3    52  UNL52       0.0330
    309 H           9.7929   -0.5121    8.0164 H      52  UNL52       0.0521
    310 H          10.2897    0.9510    7.1106 H      52  UNL52       0.0521
    311 H           9.2081    1.0951    8.5207 H      52  UNL52       0.0521
    312 H          11.9054    0.1974    8.5500 H      52  UNL52       0.2090
    313 O           8.3939   -0.6226   10.9839 O.3    53  UNL53      -0.3982
    314 C           9.7959   -0.8157   10.9419 C.3    53  UNL53       0.0330
    315 H          10.1005   -1.0607    9.9213 H      53  UNL53       0.0521
    316 H          10.0734   -1.6258   11.6207 H      53  UNL53       0.0521
    317 H          10.2911    0.1060   11.2563 H      53  UNL53       0.0521
    318 H           7.9820   -1.4564   10.7000 H      53  UNL53       0.2090
    319 O           9.8845    0.0693   17.1218 O.3    54  UNL54      -0.3982
    320 C           9.1178   -0.6712   16.1900 C.3    54  UNL54       0.0330
    321 H           8.8942   -0.0460   15.3220 H      54  UNL54       0.0521
    322 H           8.1899   -1.0029   16.6622 H      54  UNL54       0.0521
    323 H           9.6930   -1.5431   15.8698 H      54  UNL54       0.0521
    324 H           9.3486    0.8360   17.3875 H      54  UNL54       0.2090
    325 O          10.1383   -0.4138   22.3792 O.3    55  UNL55      -0.3982
    326 C           9.1022   -0.9250   21.5609 C.3    55  UNL55       0.0330
    327 H           9.4541   -1.8207   21.0429 H      55  UNL55       0.0521
    328 H           8.8019   -0.1655   20.8349 H      55  UNL55       0.0521
    329 H           8.2471   -1.1828   22.1900 H      55  UNL55       0.0521
    330 H          10.8829   -0.1941   21.7936 H      55  UNL55       0.2090
    331 O           8.0885   -0.1661   23.9896 O.3    56  UNL56      -0.3982
    332 C           8.5285    0.1580   25.2957 C.3    56  UNL56       0.0330
    333 H           8.9030   -0.7424   25.7890 H      56  UNL56       0.0521
    334 H           7.6980    0.5804   25.8665 H      56  UNL56       0.0521
    335 H           9.3325    0.8946   25.2273 H      56  UNL56       0.0521
    336 H           7.3757   -0.8209   24.0825 H      56  UNL56       0.2090
    337 O           9.3373   -0.9243   28.0442 O.3    57  UNL57      -0.3982
    338 C           7.9323   -0.9835   27.8802 C.3    57  UNL57       0.0330
    339 H           7.4873   -1.5097   28.7284 H      57  UNL57       0.0521
    340 H           7.6949   -1.5044   26.9494 H      57  UNL57       0.0521
    341 H           7.5364    0.0338   27.8370 H      57  UNL57       0.0521
    342 H           9.6597   -1.8410   28.0791 H      57  UNL57       0.2090
    343 O           9.1265   -0.4031   31.9894 O.3    58  UNL58      -0.3982
    344 C           8.5978   -0.7110   30.7126 C.3    58  UNL58       0.0330
    345 H           7.6361   -1.2171   30.8279 H      58  UNL58       0.0521
    346 H           9.2975   -1.3538   30.1729 H      58  UNL58       0.0521
    347 H           8.4541    0.2170   30.1543 H      58  UNL58       0.0521
    348 H           9.2431   -1.2454   32.4611 H      58  UNL58       0.2090
    349 O           9.2173    1.8763    0.4900 O.3    59  UNL59      -0.3982
    350 C           9.0675    3.1731   -0.0580 C.3    59  UNL59       0.0330
    351 H           8.0437    3.5208    0.1010 H      59  UNL59       0.0521
    352 H           9.2927    3.1461   -1.1269 H      59  UNL59       0.0521
    353 H           9.7624    3.8523    0.4415 H      59  UNL59       0.0521
    354 H           8.5886    1.2963    0.0275 H      59  UNL59       0.2090
    355 O           8.6794    3.5902    2.3540 O.3    60  UNL60      -0.3982
    356 C           7.2715    3.7181    2.4299 C.3    60  UNL60       0.0330
    357 H           6.9908    4.0827    3.4212 H      60  UNL60       0.0521
    358 H           6.8059    2.7477    2.2416 H      60  UNL60       0.0521
    359 H           6.9383    4.4326    1.6735 H      60  UNL60       0.0521
    360 H           8.9454    2.9505    3.0363 H      60  UNL60       0.2090
    361 O           9.0860    2.9221    5.1328 O.3    61  UNL61      -0.3982
    362 C           7.8457    2.2409    5.1769 C.3    61  UNL61       0.0330
    363 H           7.8253    1.5748    6.0430 H      61  UNL61       0.0521
    364 H           7.7123    1.6652    4.2578 H      61  UNL61       0.0521
    365 H           7.0405    2.9741    5.2649 H      61  UNL61       0.0521
    366 H           9.7806    2.2462    5.0546 H      61  UNL61       0.2090
    367 O          10.4934    3.1893    8.6043 O.3    62  UNL62      -0.3982
    368 C           9.4146    3.5460    7.7597 C.3    62  UNL62       0.0330
    369 H           9.0073    2.6482    7.2883 H      62  UNL62       0.0521
    370 H           9.7644    4.2448    6.9959 H      62  UNL62       0.0521
    371 H           8.6370    4.0246    8.3596 H      62  UNL62       0.0521
    372 H          11.1672    2.7673    8.0443 H      62  UNL62       0.2090
    373 O           9.1609    2.3055   10.8087 O.3    63  UNL63      -0.3982
    374 C           7.8606    2.2807   10.2494 C.3    63  UNL63       0.0330
    375 H           7.3827    1.3248   10.4779 H      63  UNL63       0.0521
    376 H           7.9258    2.4181    9.1673 H      63  UNL63       0.0521
    377 H           7.2719    3.0927   10.6827 H      63  UNL63       0.0521
    378 H           9.6594    1.5745   10.4055 H      63  UNL63       0.2090
    379 O           7.5089    1.8180   12.8377 O.3    64  UNL64      -0.3982
    380 C           7.7135    3.1598   13.2405 C.3    64  UNL64       0.0330
    381 H           7.1913    3.3420   14.1831 H      64  UNL64       0.0521
    382 H           7.3381    3.8345   12.4673 H      64  UNL64       0.0521
    383 H           8.7837    3.3294   13.3807 H      64  UNL64       0.0521
    384 H           6.5510    1.6977   12.7212 H      64  UNL64       0.2090
    385 O           9.0317    2.3630   15.8090 O.3    65  UNL65      -0.3982
    386 C           7.8187    2.4719   16.5310 C.3    65  UNL65       0.0330
    387 H           7.4745    1.4756   16.8195 H      65  UNL65       0.0521
    388 H           7.0664    2.9631   15.9091 H      65  UNL65       0.0521
    389 H           7.9922    3.0693   17.4292 H      65  UNL65       0.0521
    390 H           8.8465    1.8282   15.0183 H      65  UNL65       0.2090
    391 O           9.6134    2.1584   20.5873 O.3    66  UNL66      -0.3982
    392 C           8.9190    2.2539   19.3572 C.3    66  UNL66       0.0330
    393 H           8.2936    1.3681   19.2210 H      66  UNL66       0.0521
    394 H           9.6372    2.3354   18.5377 H      66  UNL66       0.0521
    395 H           8.2866    3.1446   19.3744 H      66  UNL66       0.0521
    396 H          10.1658    1.3594   20.5423 H      66  UNL66       0.2090
    397 O           8.9950    2.4810   23.0820 O.3    67  UNL67      -0.3982
    398 C           7.6557    2.2501   22.6853 C.3    67  UNL67       0.0330
    399 H           7.2318    1.4402   23.2841 H      67  UNL67       0.0521
    400 H           7.6291    1.9861   21.6252 H      67  UNL67       0.0521
    401 H           7.0752    3.1616   22.8461 H      67  UNL67       0.0521
    402 H           9.4850    1.6555   22.9277 H      67  UNL67       0.2090
    403 O           7.7556    2.9418   25.8248 O.3    68  UNL68      -0.3982
    404 C           6.3945    2.6989   25.5204 C.3    68  UNL68       0.0330
    405 H           6.2307    1.6239   25.4114 H      68  UNL68       0.0521
    406 H           6.1299    3.2142   24.5939 H      68  UNL68       0.0521
    407 H           5.7747    3.0788   26.3359 H      68  UNL68       0.0521
    408 H           8.2806    2.5941   25.0838 H      68  UNL68       0.2090
    409 O          10.7812    1.8086   28.5337 O.3    69  UNL69      -0.3982
    410 C           9.4546    1.8901   28.0458 C.3    69  UNL69       0.0330
    411 H           8.7624    1.5201   28.8062 H      69  UNL69       0.0521
    412 H           9.3636    1.2945   27.1342 H      69  UNL69       0.0521
    413 H           9.2221    2.9337   27.8213 H      69  UNL69       0.0521
    414 H          10.9586    0.8717   28.7240 H      69  UNL69       0.2090
    415 O           9.9610    3.1157   32.2494 O.3    70  UNL70      -0.3982
    416 C           9.1222    2.4718   31.3080 C.3    70  UNL70       0.0330
    417 H           8.5400    1.6945   31.8091 H      70  UNL70       0.0521
    418 H           9.7328    2.0312   30.5161 H      70  UNL70       0.0521
    419 H           8.4434    3.2096   30.8738 H      70  UNL70       0.0521
    420 H          10.5516    2.4365   32.6174 H      70  UNL70       0.2090
    421 O           9.3231    1.9395   34.1734 O.3    71  UNL71      -0.3982
    422 C           7.9280    2.1702   34.2443 C.3    71  UNL71       0.0330
    423 H           7.4563    1.3786   34.8318 H      71  UNL71       0.0521
    424 H           7.5091    2.1886   33.2353 H      71  UNL71       0.0521
    425 H           7.7514    3.1341   34.7274 H      71  UNL71       0.0521
    426 H           9.4486    1.0779   33.7404 H      71  UNL71       0.2090
    427 O          10.8991    4.8044   16.0780 O.3    72  UNL72      -0.3982
    428 C           9.6477    4.7760   16.7398 C.3    72  UNL72       0.0330
    429 H           9.6839    4.0532   17.5586 H      72  UNL72       0.0521
    430 H           8.8651    4.4990   16.0293 H      72  UNL72       0.0521
    431 H           9.4362    5.7693   17.1425 H      72  UNL72       0.0521
    432 H          11.0594    3.9101   15.7316 H      72  UNL72       0.2090
    433 O          10.2468    4.4722   29.7664 O.3    73  UNL73      -0.3982
    434 C          10.4007    5.3638   30.8554 C.3    73  UNL73       0.0330
    435 H           9.5034    5.3377   31.4786 H      73  UNL73       0.0521
    436 H          10.5659    6.3759   30.4781 H      73  UNL73       0.0521
    437 H          11.2634    5.0534   31.4495 H      73  UNL73       0.0521
    438 H           9.4743    4.7728   29.2580 H      73  UNL73       0.2090
    439 O          12.8252   -1.0052    0.2031 O.3    74  UNL74      -0.3982
    440 C          11.4177   -1.1502    0.2508 C.3    74  UNL74       0.0330
    441 H          11.1091   -1.3858    1.2724 H      74  UNL74       0.0521
    442 H          11.1096   -1.9494   -0.4277 H      74  UNL74       0.0521
    443 H          10.9531   -0.2117   -0.0605 H      74  UNL74       0.0521
    444 H          13.2095   -1.8530    0.4843 H      74  UNL74       0.2090
    445 O          13.4572   -0.2085    3.8634 O.3    75  UNL75      -0.3982
    446 C          12.4776   -0.8080    3.0355 C.3    75  UNL75       0.0330
    447 H          11.6863   -1.2352    3.6564 H      75  UNL75       0.0521
    448 H          12.9411   -1.5895    2.4285 H      75  UNL75       0.0521
    449 H          12.0514   -0.0451    2.3798 H      75  UNL75       0.0521
    450 H          13.8172   -0.9092    4.4334 H      75  UNL75       0.2090
    451 O          12.1038    0.4134    5.9782 O.3    76  UNL76      -0.3982
    452 C          12.4332   -0.9260    6.2975 C.3    76  UNL76       0.0330
    453 H          11.9570   -1.2043    7.2410 H      76  UNL76       0.0521
    454 H          13.5181   -1.0253    6.3815 H      76  UNL76       0.0521
    455 H          12.0702   -1.5806    5.5017 H      76  UNL76       0.0521
    456 H          12.4383    0.9702    6.7019 H      76  UNL76       0.2090
    457 O          14.0544   -0.5019   16.9203 O.3    77  UNL77      -0.3982
    458 C          12.7027   -0.5501   16.5020 C.3    77  UNL77       0.0330
    459 H          12.0509   -0.3004   17.3429 H      77  UNL77       0.0521
    460 H          12.4704   -1.5517   16.1320 H      77  UNL77       0.0521
    461 H          12.5529    0.1762   15.6997 H      77  UNL77       0.0521
    462 H          14.1567   -1.1565   17.6321 H      77  UNL77       0.2090
    463 O          12.9713   -0.8747   19.2988 O.3    78  UNL78      -0.3982
    464 C          11.6086   -1.2353   19.4310 C.3    78  UNL78       0.0330
    465 H          11.4622   -1.7716   20.3719 H      78  UNL78       0.0521
    466 H          11.3148   -1.8673   18.5895 H      78  UNL78       0.0521
    467 H          10.9996   -0.3283   19.4327 H      78  UNL78       0.0521
    468 H          13.4865   -1.6993   19.3005 H      78  UNL78       0.2090
    469 O          13.9859    0.1626   21.2765 O.3    79  UNL79      -0.3982
    470 C          13.3271   -0.7690   22.1148 C.3    79  UNL79       0.0330
    471 H          12.5076   -0.2721   22.6399 H      79  UNL79       0.0521
    472 H          14.0392   -1.1799   22.8346 H      79  UNL79       0.0521
    473 H          12.9257   -1.5781   21.5002 H      79  UNL79       0.0521
    474 H          14.3313    0.8682   21.8495 H      79  UNL79       0.2090
    475 O          11.6340   -0.9345   30.9481 O.3    80  UNL80      -0.3982
    476 C          13.0033   -0.7548   31.2596 C.3    80  UNL80       0.0330
    477 H          13.1060    0.0244   32.0189 H      80  UNL80       0.0521
    478 H          13.5493   -0.4724   30.3562 H      80  UNL80       0.0521
    479 H          13.4057   -1.6936   31.6473 H      80  UNL80       0.0521
    480 H          11.3048   -0.0856   30.6067 H      80  UNL80       0.2090
    481 O          10.6737   -0.9233   34.8318 O.3    81  UNL81      -0.3982
    482 C          11.4907   -0.8156   33.6805 C.3    81  UNL81       0.0330
    483 H          11.0548   -0.0894   32.9899 H      81  UNL81       0.0521
    484 H          11.5704   -1.7921   33.1967 H      81  UNL81       0.0521
    485 H          12.4853   -0.4780   33.9810 H      81  UNL81       0.0521
    486 H           9.7985   -1.2245   34.5340 H      81  UNL81       0.2090
    487 O          14.2503    1.4340    0.9211 O.3    82  UNL82      -0.3982
    488 C          13.6417    1.9855   -0.2321 C.3    82  UNL82       0.0330
    489 H          12.6585    2.3846    0.0292 H      82  UNL82       0.0521
    490 H          13.5412    1.2119   -0.9973 H      82  UNL82       0.0521
    491 H          14.2706    2.7930   -0.6141 H      82  UNL82       0.0521
    492 H          13.6700    0.7206    1.2371 H      82  UNL82       0.2090
    493 O          12.7391    2.4900    2.4934 O.3    83  UNL83      -0.3982
    494 C          11.3763    2.1284    2.3651 C.3    83  UNL83       0.0330
    495 H          11.0165    1.7182    3.3120 H      83  UNL83       0.0521
    496 H          11.2686    1.3865    1.5701 H      83  UNL83       0.0521
    497 H          10.7950    3.0180    2.1115 H      83  UNL83       0.0521
    498 H          13.2294    1.6810    2.7184 H      83  UNL83       0.2090
    499 O          13.2264    2.5561    5.3436 O.3    84  UNL84      -0.3982
    500 C          11.9650    3.1265    5.6403 C.3    84  UNL84       0.0330
    501 H          11.2756    2.3417    5.9613 H      84  UNL84       0.0521
    502 H          11.5737    3.6294    4.7527 H      84  UNL84       0.0521
    503 H          12.0850    3.8548    6.4458 H      84  UNL84       0.0521
    504 H          13.0882    1.9146    4.6261 H      84  UNL84       0.2090
    505 O          14.1380    1.3760   10.0690 O.3    85  UNL85      -0.3982
    506 C          14.5546    1.0490    8.7560 C.3    85  UNL85       0.0330
    507 H          14.0352    0.1474    8.4218 H      85  UNL85       0.0521
    508 H          15.6349    0.8850    8.7458 H      85  UNL85       0.0521
    509 H          14.3078    1.8777    8.0882 H      85  UNL85       0.0521
    510 H          14.3701    0.6227   10.6383 H      85  UNL85       0.2090
    511 O          12.9823    2.9868   11.7730 O.3    86  UNL86      -0.3982
    512 C          12.0726    2.6567   10.7396 C.3    86  UNL86       0.0330
    513 H          11.6493    1.6669   10.9280 H      86  UNL86       0.0521
    514 H          12.5927    2.6654    9.7787 H      86  UNL86       0.0521
    515 H          11.2694    3.3971   10.7234 H      86  UNL86       0.0521
    516 H          13.6832    2.3129   11.7628 H      86  UNL86       0.2090
    517 O          12.1677    1.6099   13.3770 O.3    87  UNL87      -0.3982
    518 C          10.7805    1.8209   13.5658 C.3    87  UNL87       0.0330
    519 H          10.4141    1.1582   14.3538 H      87  UNL87       0.0521
    520 H          10.2502    1.6213   12.6314 H      87  UNL87       0.0521
    521 H          10.6160    2.8599   13.8607 H      87  UNL87       0.0521
    522 H          12.2824    0.6802   13.1161 H      87  UNL87       0.2090
    523 O          13.8730    2.2716   15.0118 O.3    88  UNL88      -0.3982
    524 C          13.0568    2.3692   16.1645 C.3    88  UNL88       0.0330
    525 H          13.4649    1.7356   16.9559 H      88  UNL88       0.0521
    526 H          12.0395    2.0544   15.9194 H      88  UNL88       0.0521
    527 H          13.0428    3.4078   16.5031 H      88  UNL88       0.0521
    528 H          13.8659    1.3395   14.7348 H      88  UNL88       0.2090
    529 O          13.2960    2.6677   19.5730 O.3    89  UNL89      -0.3982
    530 C          11.9457    2.7399   19.1536 C.3    89  UNL89       0.0330
    531 H          11.4833    1.7534   19.2392 H      89  UNL89       0.0521
    532 H          11.9030    3.0854   18.1178 H      89  UNL89       0.0521
    533 H          11.4122    3.4468   19.7935 H      89  UNL89       0.0521
    534 H          13.7436    2.0336   18.9872 H      89  UNL89       0.2090
    535 O          13.2245    2.7946   22.6394 O.3    90  UNL90      -0.3982
    536 C          11.9935    2.1802   22.3049 C.3    90  UNL90       0.0330
    537 H          11.5583    1.7243   23.1977 H      90  UNL90       0.0521
    538 H          12.1614    1.4191   21.5391 H      90  UNL90       0.0521
    539 H          11.3111    2.9400   21.9169 H      90  UNL90       0.0521
    540 H          13.8089    2.0963   22.9804 H      90  UNL90       0.2090
    541 O          11.8829    3.6093   24.7096 O.3    91  UNL91      -0.3982
    542 C          10.7380    3.3622   25.5050 C.3    91  UNL91       0.0330
    543 H          11.0318    3.2873   26.5549 H      91  UNL91       0.0521
    544 H          10.2622    2.4332   25.1816 H      91  UNL91       0.0521
    545 H          10.0355    4.1901   25.3836 H      91  UNL91       0.0521
    546 H          12.4873    2.8585   24.8379 H      91  UNL91       0.2090
    547 O          13.7686    3.5649   26.4519 O.3    92  UNL92      -0.3982
    548 C          13.2618    2.4862   27.2161 C.3    92  UNL92       0.0330
    549 H          14.0921    1.8845   27.5940 H      92  UNL92       0.0521
    550 H          12.6073    1.8725   26.5925 H      92  UNL92       0.0521
    551 H          12.6907    2.8847   28.0580 H      92  UNL92       0.0521
    552 H          14.2702    3.1806   25.7128 H      92  UNL92       0.2090
    553 O          13.5096    1.8631   30.2521 O.3    93  UNL93      -0.3982
    554 C          12.4113    2.3734   30.9856 C.3    93  UNL93       0.0330
    555 H          11.6827    2.8084   30.2970 H      93  UNL93       0.0521
    556 H          12.7628    3.1325   31.6885 H      93  UNL93       0.0521
    557 H          11.9433    1.5561   31.5392 H      93  UNL93       0.0521
    558 H          13.9043    2.6106   29.7716 H      93  UNL93       0.2090
    559 O          13.3655    3.2327   34.8318 O.3    94  UNL94      -0.3982
    560 C          13.0246    1.9890   34.2473 C.3    94  UNL94       0.0330
    561 H          13.4902    1.1791   34.8144 H      94  UNL94       0.0521
    562 H          13.3682    1.9664   33.2103 H      94  UNL94       0.0521
    563 H          11.9388    1.8706   34.2718 H      94  UNL94       0.0521
    564 H          14.3342    3.3093   34.7958 H      94  UNL94       0.2090
    565 O          12.9362    4.7763    3.0166 O.3    95  UNL95      -0.3982
    566 C          13.9308    5.6878    2.5873 C.3    95  UNL95       0.0330
    567 H          14.8092    5.1353    2.2445 H      95  UNL95       0.0521
    568 H          14.2024    6.3482    3.4144 H      95  UNL95       0.0521
    569 H          13.5339    6.2845    1.7627 H      95  UNL95       0.0521
    570 H          13.3172    4.2613    3.7481 H      95  UNL95       0.2090
@<TRIPOS>BOND
     1     1     2    1
     2     1     6    1
     3     2     3    1
     4     2     4    1
     5     2     5    1
     6     7     8    1
     7     7    12    1
     8     8     9    1
     9     8    10    1
    10     8    11    1
    11    13    14    1
    12    13    18    1
    13    14    15    1
    14    14    16    1
    15    14    17    1
    16    19    20    1
    17    19    24    1
    18    20    21    1
    19    20    22    1
    20    20    23    1
    21    25    26    1
    22    25    30    1
    23    26    27    1
    24    26    28    1
    25    26    29    1
    26    31    32    1
    27    31    36    1
    28    32    33    1
    29    32    34    1
    30    32    35    1
    31    37    38    1
    32    37    42    1
    33    38    39    1
    34    38    40    1
    35    38    41    1
    36    43    44    1
    37    43    48    1
    38    44    45    1
    39    44    46    1
    40    44    47    1
    41    49    50    1
    42    49    54    1
    43    50    51    1
    44    50    52    1
    45    50    53    1
    46    55    56    1
    47    55    60    1
    48    56    57    1
    49    56    58    1
    50    56    59    1
    51    61    62    1
    52    61    66    1
    53    62    63    1
    54    62    64    1
    55    62    65    1
    56    67    68    1
    57    67    72    1
    58    68    69    1
    59    68    70    1
    60    68    71    1
    61    73    74    1
    62    73    78    1
    63    74    75    1
    64    74    76    1
    65    74    77    1
    66    79    80    1
    67    79    84    1
    68    80    81    1
    69    80    82    1
    70    80    83    1
    71    85    86    1
    72    85    90    1
    73    86    87    1
    74    86    88    1
    75    86    89    1
    76    91    92    1
    77    91    96    1
    78    92    93    1
    79    92    94    1
    80    92    95    1
    81    97    98    1
    82    97   102    1
    83    98    99    1
    84    98   100    1
    85    98   101    1
    86   103   104    1
    87   103   108    1
    88   104   105    1
    89   104   106    1
    90   104   107    1
    91   109   110    1
    92   109   114    1
    93   110   111    1
    94   110   112    1
    95   110   113    1
    96   115   116    1
    97   115   120    1
    98   116   117    1
    99   116   118    1
   100   116   119    1
   101   121   122    1
   102   121   126    1
   103   122   123    1
   104   122   124    1
   105   122   125    1
   106   127   128    1
   107   127   132    1
   108   128   129    1
   109   128   130    1
   110   128   131    1
   111   133   134    1
   112   133   138    1
   113   134   135    1
   114   134   136    1
   115   134   137    1
   116   139   140    1
   117   139   144    1
   118   140   141    1
   119   140   142    1
   120   140   143    1
   121   145   146    1
   122   145   150    1
   123   146   147    1
   124   146   148    1
   125   146   149    1
   126   151   152    1
   127   151   156    1
   128   152   153    1
   129   152   154    1
   130   152   155    1
   131   157   158    1
   132   157   162    1
   133   158   159    1
   134   158   160    1
   135   158   161    1
   136   163   164    1
   137   163   168    1
   138   164   165    1
   139   164   166    1
   140   164   167    1
   141   169   170    1
   142   169   174    1
   143   170   171    1
   144   170   172    1
   145   170   173    1
   146   175   176    1
   147   175   180    1
   148   176   177    1
   149   176   178    1
   150   176   179    1
   151   181   182    1
   152   181   186    1
   153   182   183    1
   154   182   184    1
   155   182   185    1
   156   187   188    1
   157   187   192    1
   158   188   189    1
   159   188   190    1
   160   188   191    1
   161   193   194    1
   162   193   198    1
   163   194   195    1
   164   194   196    1
   165   194   197    1
   166   199   200    1
   167   199   204    1
   168   200   201    1
   169   200   202    1
   170   200   203    1
   171   205   206    1
   172   205   210    1
   173   206   207    1
   174   206   208    1
   175   206   209    1
   176   211   212    1
   177   211   216    1
   178   212   213    1
   179   212   214    1
   180   212   215    1
   181   217   218    1
   182   217   222    1
   183   218   219    1
   184   218   220    1
   185   218   221    1
   186   223   224    1
   187   223   228    1
   188   224   225    1
   189   224   226    1
   190   224   227    1
   191   229   230    1
   192   229   234    1
   193   230   231    1
   194   230   232    1
   195   230   233    1
   196   235   236    1
   197   235   240    1
   198   236   237    1
   199   236   238    1
   200   236   239    1
   201   241   242    1
   202   241   246    1
   203   242   243    1
   204   242   244    1
   205   242   245    1
   206   247   248    1
   207   247   252    1
   208   248   249    1
   209   248   250    1
   210   248   251    1
   211   253   254    1
   212   253   258    1
   213   254   255    1
   214   254   256    1
   215   254   257    1
   216   259   260    1
   217   259   264    1
   218   260   261    1
   219   260   262    1
   220   260   263    1
   221   265   266    1
   222   265   270    1
   223   266   267    1
   224   266   268    1
   225   266   269    1
   226   271   272    1
   227   271   276    1
   228   272   273    1
   229   272   274    1
   230   272   275    1
   231   277   278    1
   232   277   282    1
   233   278   279    1
   234   278   280    1
   235   278   281    1
   236   283   284    1
   237   283   288    1
   238   284   285    1
   239   284   286    1
   240   284   287    1
   241   289   290    1
   242   289   294    1
   243   290   291    1
   244   290   292    1
   245   290   293    1
   246   295   296    1
   247   295   300    1
   248   296   297    1
   249   296   298    1
   250   296   299    1
   251   301   302    1
   252   301   306    1
   253   302   303    1
   254   302   304    1
   255   302   305    1
   256   307   308    1
   257   307   312    1
   258   308   309    1
   259   308   310    1
   260   308   311    1
   261   313   314    1
   262   313   318    1
   263   314   315    1
   264   314   316    1
   265   314   317    1
   266   319   320    1
   267   319   324    1
   268   320   321    1
   269   320   322    1
   270   320   323    1
   271   325   326    1
   272   325   330    1
   273   326   327    1
   274   326   328    1
   275   326   329    1
   276   331   332    1
   277   331   336    1
   278   332   333    1
   279   332   334    1
   280   332   335    1
   281   337   338    1
   282   337   342    1
   283   338   339    1
   284   338   340    1
   285   338   341    1
   286   343   344    1
   287   343   348    1
   288   344   345    1
   289   344   346    1
   290   344   347    1
   291   349   350    1
   292   349   354    1
   293   350   351    1
   294   350   352    1
   295   350   353    1
   296   355   356    1
   297   355   360    1
   298   356   357    1
   299   356   358    1
   300   356   359    1
   301   361   362    1
   302   361   366    1
   303   362   363    1
   304   362   364    1
   305   362   365    1
   306   367   368    1
   307   367   372    1
   308   368   369    1
   309   368   370    1
   310   368   371    1
   311   373   374    1
   312   373   378    1
   313   374   375    1
   314   374   376    1
   315   374   377    1
   316   379   380    1
   317   379   384    1
   318   380   381    1
   319   380   382    1
   320   380   383    1
   321   385   386    1
   322   385   390    1
   323   386   387    1
   324   386   388    1
   325   386   389    1
   326   391   392    1
   327   391   396    1
   328   392   393    1
   329   392   394    1
   330   392   395    1
   331   397   398    1
   332   397   402    1
   333   398   399    1
   334   398   400    1
   335   398   401    1
   336   403   404    1
   337   403   408    1
   338   404   405    1
   339   404   406    1
   340   404   407    1
   341   409   410    1
   342   409   414    1
   343   410   411    1
   344   410   412    1
   345   410   413    1
   346   415   416    1
   347   415   420    1
   348   416   417    1
   349   416   418    1
   350   416   419    1
   351   421   422    1
   352   421   426    1
   353   422   423    1
   354   422   424    1
   355   422   425    1
   356   427   428    1
   357   427   432    1
   358   428   429    1
   359   428   430    1
   360   428   431    1
   361   433   434    1
   362   433   438    1
   363   434   435    1
   364   434   436    1
   365   434   437    1
   366   439   440    1
   367   439   444    1
   368   440   441    1
   369   440   442    1
   370   440   443    1
   371   445   446    1
   372   445   450    1
   373   446   447    1
   374   446   448    1
   375   446   449    1
   376   451   452    1
   377   451   456    1
   378   452   453    1
   379   452   454    1
   380   452   455    1
   381   457   458    1
   382   457   462    1
   383   458   459    1
   384   458   460    1
   385   458   461    1
   386   463   464    1
   387   463   468    1
   388   464   465    1
   389   464   466    1
   390   464   467    1
   391   469   470    1
   392   469   474    1
   393   470   471    1
   394   470   472    1
   395   470   473    1
   396   475   476    1
   397   475   480    1
   398   476   477    1
   399   476   478    1
   400   476   479    1
   401   481   482    1
   402   481   486    1
   403   482   483    1
   404   482   484    1
   405   482   485    1
   406   487   488    1
   407   487   492    1
   408   488   489    1
   409   488   490    1
   410   488   491    1
   411   493   494    1
   412   493   498    1
   413   494   495    1
   414   494   496    1
   415   494   497    1
   416   499   500    1
   417   499   504    1
   418   500   501    1
   419   500   502    1
   420   500   503    1
   421   505   506    1
   422   505   510    1
   423   506   507    1
   424   506   508    1
   425   506   509    1
   426   511   512    1
   427   511   516    1
   428   512   513    1
   429   512   514    1
   430   512   515    1
   431   517   518    1
   432   517   522    1
   433   518   519    1
   434   518   520    1
   435   518   521    1
   436   523   524    1
   437   523   528    1
   438   524   525    1
   439   524   526    1
   440   524   527    1
   441   529   530    1
   442   529   534    1
   443   530   531    1
   444   530   532    1
   445   530   533    1
   446   535   536    1
   447   535   540    1
   448   536   537    1
   449   536   538    1
   450   536   539    1
   451   541   542    1
   452   541   546    1
   453   542   543    1
   454   542   544    1
   455   542   545    1
   456   547   548    1
   457   547   552    1
   458   548   549    1
   459   548   550    1
   460   548   551    1
   461   553   554    1
   462   553   558    1
   463   554   555    1
   464   554   556    1
   465   554   557    1
   466   559   560    1
   467   559   564    1
   468   560   561    1
   469   560   562    1
   470   560   563    1
   471   565   566    1
   472   565   570    1
   473   566   567    1
   474   566   568    1
   475   566   569    1
