@<TRIPOS>MOLECULE
*****
 1974 1645 0 0 0
SMALL
GASTEIGER

@<TRIPOS>ATOM
      1 O          -0.3958    2.0220    2.8108 O.3     1  UNL1       -0.3982
      2 C           0.2258    1.6185    4.0172 C.3     1  UNL1        0.0330
      3 H           1.1338    2.2061    4.1746 H       1  UNL1        0.0521
      4 H           0.4719    0.5553    3.9634 H       1  UNL1        0.0521
      5 H          -0.4643    1.7890    4.8468 H       1  UNL1        0.0521
      6 H           0.2400    1.8589    2.0934 H       1  UNL1        0.2090
      7 O          -1.0771   -0.9047    9.2374 O.3     2  UNL2       -0.3982
      8 C          -0.8724   -0.9047    7.8365 C.3     2  UNL2        0.0330
      9 H          -1.4744   -0.1155    7.3793 H       2  UNL2        0.0521
     10 H          -1.1549   -1.8772    7.4261 H       2  UNL2        0.0521
     11 H           0.1845   -0.7185    7.6319 H       2  UNL2        0.0521
     12 H          -2.0231   -1.0723    9.3879 H       2  UNL2        0.2090
     13 O          -0.4050    3.1591   -0.2849 O.3     3  UNL3       -0.3982
     14 C          -1.8208    3.1591   -0.2849 C.3     3  UNL3        0.0330
     15 H          -2.1861    2.3901    0.4003 H       3  UNL3        0.0521
     16 H          -2.1860    2.9644   -1.2962 H       3  UNL3        0.0521
     17 H          -2.1761    4.1377    0.0463 H       3  UNL3        0.0521
     18 H          -0.1193    2.2787   -0.5829 H       3  UNL3        0.2090
     19 O          -0.2907    4.5925    3.6991 O.3     4  UNL4       -0.3982
     20 C          -0.1275    4.7162    2.2982 C.3     4  UNL4        0.0330
     21 H          -0.1612    3.7257    1.8376 H       4  UNL4        0.0521
     22 H           0.8297    5.1974    2.0831 H       4  UNL4        0.0521
     23 H          -0.9388    5.3291    1.8987 H       4  UNL4        0.0521
     24 H           0.4432    4.0440    4.0249 H       4  UNL4        0.2090
     25 O          -0.2631    4.5088   10.7014 O.3     5  UNL5       -0.3982
     26 C          -1.6789    4.5088   10.7014 C.3     5  UNL5        0.0330
     27 H          -2.0442    3.7398   11.3866 H       5  UNL5        0.0521
     28 H          -2.0441    4.3141    9.6901 H       5  UNL5        0.0521
     29 H          -2.0342    5.4874   11.0326 H       5  UNL5        0.0521
     30 H           0.0226    3.6284   10.4034 H       5  UNL5        0.2090
     31 O          -0.2113    3.8459   13.0107 O.3     6  UNL6       -0.3982
     32 C          -0.0066    3.8459   14.4116 C.3     6  UNL6        0.0330
     33 H           0.7243    3.0769   14.6740 H       6  UNL6        0.0521
     34 H          -0.9544    3.6512   14.9192 H       6  UNL6        0.0521
     35 H           0.3725    4.8245   14.7153 H       6  UNL6        0.0521
     36 H          -0.5475    2.9655   12.7711 H       6  UNL6        0.2090
     37 O          -0.8207    6.3655   15.7067 O.3     7  UNL7       -0.3982
     38 C          -1.5038    6.3655   14.4666 C.3     7  UNL7        0.0330
     39 H          -1.8605    7.3747   14.2460 H       7  UNL7        0.0521
     40 H          -2.3467    5.6718   14.5139 H       7  UNL7        0.0521
     41 H          -0.8149    6.0452   13.6815 H       7  UNL7        0.0521
     42 H          -1.4569    6.6537   16.3833 H       7  UNL7        0.2090
     43 O          -1.0302    9.1803    1.4449 O.3     8  UNL8       -0.3982
     44 C          -1.1684   10.5664    1.6977 C.3     8  UNL8        0.0330
     45 H          -1.6120   10.7153    2.6853 H       8  UNL8        0.0521
     46 H          -1.8028   11.0162    0.9300 H       8  UNL8        0.0521
     47 H          -0.1808   11.0328    1.6702 H       8  UNL8        0.0521
     48 H          -1.9220    8.7939    1.4757 H       8  UNL8        0.2090
     49 O          -0.0740   11.1206    5.7157 O.3     9  UNL9       -0.3982
     50 C          -1.4898   11.1206    5.7157 C.3     9  UNL9        0.0330
     51 H          -1.8551   12.0875    5.3610 H       9  UNL9        0.0521
     52 H          -1.8550   10.9301    6.7278 H       9  UNL9        0.0521
     53 H          -1.8451   10.3321    5.0482 H       9  UNL9        0.0521
     54 H           0.2117   11.8299    6.3164 H       9  UNL9        0.2090
     55 O           0.5001    9.7191   17.2631 O.3    10  UNL10      -0.3982
     56 C          -0.9157    9.7191   17.2631 C.3    10  UNL10       0.0330
     57 H          -1.2810   10.5083   17.9249 H      10  UNL10       0.0521
     58 H          -1.2809    8.7466   17.6020 H      10  UNL10       0.0521
     59 H          -1.2710    9.9053   16.2469 H      10  UNL10       0.0521
     60 H           0.7858    9.5515   18.1773 H      10  UNL10       0.2090
     61 O          -1.7645   13.4834    1.9707 O.3    11  UNL11      -0.3982
     62 C          -0.4079   13.4834    1.5655 C.3    11  UNL11       0.0330
     63 H          -0.2540   12.7144    0.8045 H      11  UNL11       0.0521
     64 H           0.2314   13.2887    2.4300 H      11  UNL11       0.0521
     65 H          -0.1623   14.4620    1.1465 H      11  UNL11       0.0521
     66 H          -1.9530   12.6030    2.3380 H      11  UNL11       0.2090
     67 O          -0.7066   13.5581    5.8526 O.3    12  UNL12      -0.3982
     68 C          -0.5018   13.5581    4.4516 C.3    12  UNL12       0.0330
     69 H           0.5664   13.4694    4.2386 H      12  UNL12       0.0521
     70 H          -0.8935   14.4849    4.0253 H      12  UNL12       0.0521
     71 H          -1.0301   12.7071    4.0154 H      12  UNL12       0.0521
     72 H          -0.2264   14.3238    6.2115 H      12  UNL12       0.2090
     73 O           0.4280   13.3070    8.7085 O.3    13  UNL13      -0.3982
     74 C          -0.9878   13.3070    8.7085 C.3    13  UNL13       0.0330
     75 H          -1.3531   12.5380    9.3937 H      13  UNL13       0.0521
     76 H          -1.3530   13.1123    7.6972 H      13  UNL13       0.0521
     77 H          -1.3431   14.2856    9.0397 H      13  UNL13       0.0521
     78 H           0.7137   12.4266    8.4105 H      13  UNL13       0.2090
     79 O           1.5356   13.5942   12.7198 O.3    14  UNL14      -0.3982
     80 C           0.7443   13.2812   11.5883 C.3    14  UNL14       0.0330
     81 H           0.6326   12.1970   11.5092 H      14  UNL14       0.0521
     82 H           1.2221   13.6756   10.6881 H      14  UNL14       0.0521
     83 H          -0.2406   13.7392   11.7058 H      14  UNL14       0.0521
     84 H           2.4027   13.1747   12.5870 H      14  UNL14       0.2090
     85 O          -0.1860   16.5638    3.8951 O.3    15  UNL15      -0.3982
     86 C          -1.6018   16.5638    3.8951 C.3    15  UNL15       0.0330
     87 H          -1.9671   16.7930    4.8993 H      15  UNL15       0.0521
     88 H          -1.9670   15.5840    3.5778 H      15  UNL15       0.0521
     89 H          -1.9571   17.3261    3.1978 H      15  UNL15       0.0521
     90 H           0.0997   15.8780    4.5225 H      15  UNL15       0.2090
     91 O          -0.5591   16.3653   13.3462 O.3    16  UNL16      -0.3982
     92 C          -0.5108   16.5643   14.7471 C.3    16  UNL16       0.0330
     93 H           0.4802   16.9272   15.0306 H      16  UNL16       0.0521
     94 H          -0.7252   15.6221   15.2574 H      16  UNL16       0.0521
     95 H          -1.2620   17.3066   15.0266 H      16  UNL16       0.0521
     96 H           0.1179   15.7021   13.1283 H      16  UNL16       0.2090
     97 O          -0.5545   16.7600   17.4924 O.3    17  UNL17      -0.3982
     98 C          -1.9703   16.7600   17.4924 C.3    17  UNL17       0.0330
     99 H          -2.3356   15.9910   18.1776 H      17  UNL17       0.0521
    100 H          -2.3355   16.5653   16.4811 H      17  UNL17       0.0521
    101 H          -2.3256   17.7386   17.8236 H      17  UNL17       0.0521
    102 H          -0.2688   15.8796   17.1944 H      17  UNL17       0.2090
    103 O           0.2815   19.7739    0.9872 O.3    18  UNL18      -0.3982
    104 C          -1.1343   19.7739    0.9872 C.3    18  UNL18       0.0330
    105 H          -1.4996   19.0049    1.6724 H      18  UNL18       0.0521
    106 H          -1.4995   19.5792   -0.0241 H      18  UNL18       0.0521
    107 H          -1.4896   20.7525    1.3184 H      18  UNL18       0.0521
    108 H           0.5672   18.8935    0.6892 H      18  UNL18       0.2090
    109 O           1.0105   18.8039    3.5609 O.3    19  UNL19      -0.3982
    110 C           0.2193   19.1169    4.6925 C.3    19  UNL19       0.0330
    111 H          -0.0773   18.1942    5.1974 H      19  UNL19       0.0521
    112 H          -0.6667   19.6727    4.3761 H      19  UNL19       0.0521
    113 H           0.8071   19.7320    5.3779 H      19  UNL19       0.0521
    114 H           0.4628   18.2581    2.9714 H      19  UNL19       0.2090
    115 O           0.4784   20.0190   10.7501 O.3    20  UNL20      -0.3982
    116 C          -0.7809   19.8093   11.3622 C.3    20  UNL20       0.0330
    117 H          -0.6362   19.3910   12.3614 H      20  UNL20       0.0521
    118 H          -1.3744   19.1247   10.7513 H      20  UNL20       0.0521
    119 H          -1.3009   20.7668   11.4422 H      20  UNL20       0.0521
    120 H           0.9161   19.1526   10.6927 H      20  UNL20       0.2090
    121 O           0.0105   19.0554   16.2670 O.3    21  UNL21      -0.3982
    122 C           0.2153   19.0554   17.6679 C.3    21  UNL21       0.0330
    123 H          -0.7472   18.9667   18.1778 H      21  UNL21       0.0521
    124 H           0.7126   19.9822   17.9643 H      21  UNL21       0.0521
    125 H           0.8463   18.2044   17.9348 H      21  UNL21       0.0521
    126 H          -0.5522   19.8211   16.0605 H      21  UNL21       0.2090
    127 O          -0.1022   22.9219   -0.3738 O.3    22  UNL22      -0.3982
    128 C          -1.5180   22.9219   -0.3738 C.3    22  UNL22       0.0330
    129 H          -1.8833   22.1529    0.3114 H      22  UNL22       0.0521
    130 H          -1.8832   22.7272   -1.3851 H      22  UNL22       0.0521
    131 H          -1.8733   23.9005   -0.0426 H      22  UNL22       0.0521
    132 H           0.1835   22.0415   -0.6718 H      22  UNL22       0.2090
    133 O           0.0843   23.1365    2.6143 O.3    23  UNL23      -0.3982
    134 C          -1.3315   23.1365    2.6143 C.3    23  UNL23       0.0330
    135 H          -1.6968   22.1653    2.2713 H      23  UNL23       0.0521
    136 H          -1.6967   23.9284    1.9559 H      23  UNL23       0.0521
    137 H          -1.6868   23.3185    3.6313 H      23  UNL23       0.0521
    138 H           0.3700   22.9727    1.6994 H      23  UNL23       0.2090
    139 O          -0.5664   22.8734   10.8246 O.3    24  UNL24      -0.3982
    140 C          -1.9822   22.8734   10.8246 C.3    24  UNL24       0.0330
    141 H          -2.3475   23.5756   10.0712 H      24  UNL24       0.0521
    142 H          -2.3474   23.1609   11.8136 H      24  UNL24       0.0521
    143 H          -2.3375   21.8683   10.5855 H      24  UNL24       0.0521
    144 H          -0.2807   23.7776   11.0398 H      24  UNL24       0.2090
    145 O          -0.6142   24.3957   14.2426 O.3    25  UNL25      -0.3982
    146 C           0.6198   24.0827   13.6233 C.3    25  UNL25       0.0330
    147 H           0.7142   22.9984   13.5242 H      25  UNL25       0.0521
    148 H           1.4414   24.4770   14.2263 H      25  UNL25       0.0521
    149 H           0.6460   24.5406   12.6318 H      25  UNL25       0.0521
    150 H          -0.6082   23.9762   15.1199 H      25  UNL25       0.2090
    151 O          -0.7662   21.3261   17.4924 O.3    26  UNL26      -0.3982
    152 C          -0.5614   22.7270   17.4924 C.3    26  UNL26       0.0330
    153 H          -1.2695   23.1997   18.1776 H      26  UNL26       0.0521
    154 H          -0.7013   23.1165   16.4811 H      26  UNL26       0.0521
    155 H           0.4583   22.9370   17.8236 H      26  UNL26       0.0521
    156 H          -1.6786   21.1707   17.1944 H      26  UNL26       0.2090
    157 O          -0.0887   26.6844   11.8401 O.3    27  UNL27      -0.3982
    158 C          -0.8799   26.3714   10.7085 C.3    27  UNL27       0.0330
    159 H          -0.9916   25.2871   10.6295 H      27  UNL27       0.0521
    160 H          -0.4022   26.7657    9.8084 H      27  UNL27       0.0521
    161 H          -1.8649   26.8293   10.8260 H      27  UNL27       0.0521
    162 H           0.7785   26.2649   11.7072 H      27  UNL27       0.2090
    163 O           1.6578   25.6614   17.5911 O.3    28  UNL28      -0.3982
    164 C           0.2420   25.6614   17.5911 C.3    28  UNL28       0.0330
    165 H          -0.1233   25.5726   16.5649 H      28  UNL28       0.0521
    166 H          -0.1232   26.5881   18.0403 H      28  UNL28       0.0521
    167 H          -0.1133   24.8104   18.1769 H      28  UNL28       0.0521
    168 H           1.9435   26.4270   17.0641 H      28  UNL28       0.2090
    169 O           0.2159   28.1597   -0.9960 O.3    29  UNL29      -0.3982
    170 C          -1.1999   28.1597   -0.9960 C.3    29  UNL29       0.0330
    171 H          -1.5652   27.3907   -0.3108 H      29  UNL29       0.0521
    172 H          -1.5651   27.9650   -2.0073 H      29  UNL29       0.0521
    173 H          -1.5552   29.1383   -0.6648 H      29  UNL29       0.0521
    174 H           0.5016   27.2793   -1.2940 H      29  UNL29       0.2090
    175 O           0.7792   30.4951    0.5552 O.3    30  UNL30      -0.3982
    176 C           0.6244   31.2604    1.7362 C.3    30  UNL30       0.0330
    177 H           0.7281   32.3223    1.4997 H      30  UNL30       0.0521
    178 H           1.3815   30.9631    2.4659 H      30  UNL30       0.0521
    179 H          -0.3697   31.0770    2.1506 H      30  UNL30       0.0521
    180 H           1.6699   30.6784    0.2107 H      30  UNL30       0.2090
    181 O          -0.8852   31.8159    4.0835 O.3    31  UNL31      -0.3982
    182 C          -0.6558   32.2032    5.4258 C.3    31  UNL31       0.0330
    183 H          -0.8330   31.3515    6.0872 H      31  UNL31       0.0521
    184 H          -1.3245   33.0268    5.6877 H      31  UNL31       0.0521
    185 H           0.3811   32.5319    5.5285 H      31  UNL31       0.0521
    186 H          -1.8125   31.5295    4.0233 H      31  UNL31       0.2090
    187 O          -0.6683   32.0088   11.6054 O.3    32  UNL32      -0.3982
    188 C           0.4152   32.0925   10.6980 C.3    32  UNL32       0.0330
    189 H           0.0735   31.8239    9.6953 H      32  UNL32       0.0521
    190 H           1.2116   31.4156   11.0166 H      32  UNL32       0.0521
    191 H           0.7931   33.1176   10.6894 H      32  UNL32       0.0521
    192 H          -0.9823   31.0886   11.5914 H      32  UNL32       0.2090
    193 O           0.3566   34.3060    4.1999 O.3    33  UNL33      -0.3982
    194 C          -0.3076   35.1773    5.0966 C.3    33  UNL33       0.0330
    195 H           0.3277   36.0421    5.3035 H      33  UNL33       0.0521
    196 H          -0.5309   34.6454    6.0246 H      33  UNL33       0.0521
    197 H          -1.2406   35.5145    4.6390 H      33  UNL33       0.0521
    198 H           1.1800   34.0235    4.6331 H      33  UNL33       0.2090
    199 O          -0.6976   36.0427   14.2731 O.3    34  UNL34      -0.3982
    200 C          -0.2621   34.6957   14.2961 C.3    34  UNL34       0.0330
    201 H          -0.8194   34.1189   13.5538 H      34  UNL34       0.0521
    202 H          -0.4214   34.2773   15.2929 H      34  UNL34       0.0521
    203 H           0.8031   34.6626   14.0554 H      34  UNL34       0.0521
    204 H          -1.6455   36.0402   14.4903 H      34  UNL34       0.2090
    205 O          -0.2998   35.5326   17.2568 O.3    35  UNL35      -0.3982
    206 C          -1.6757   35.1986   17.2568 C.3    35  UNL35       0.0330
    207 H          -2.2564   36.0426   17.6373 H      35  UNL35       0.0521
    208 H          -1.8379   34.3187   17.8840 H      35  UNL35       0.0521
    209 H          -1.9873   34.9765   16.2336 H      35  UNL35       0.0521
    210 H          -0.0524   35.7244   18.1774 H      35  UNL35       0.2090
    211 O           2.8573   -0.7498    1.7863 O.3    36  UNL36      -0.3982
    212 C           1.4415   -0.7498    1.7863 C.3    36  UNL36       0.0330
    213 H           1.0762   -1.5188    2.4715 H      36  UNL36       0.0521
    214 H           1.0763   -0.9445    0.7750 H      36  UNL36       0.0521
    215 H           1.0862    0.2288    2.1175 H      36  UNL36       0.0521
    216 H           3.1430   -1.6302    1.4883 H      36  UNL36       0.2090
    217 O           3.7864    0.0574    5.6887 O.3    37  UNL37      -0.3982
    218 C           2.3706    0.0574    5.6887 C.3    37  UNL37       0.0330
    219 H           2.0053    0.2866    6.6929 H      37  UNL37       0.0521
    220 H           2.0054   -0.9223    5.3713 H      37  UNL37       0.0521
    221 H           2.0153    0.8197    4.9913 H      37  UNL37       0.0521
    222 H           4.0721   -0.6284    6.3161 H      37  UNL37       0.2090
    223 O           1.6983    0.3340    8.7619 O.3    38  UNL38      -0.3982
    224 C           3.1080    0.3340    8.6308 C.3    38  UNL38       0.0330
    225 H           3.4083   -0.4350    7.9147 H      38  UNL38       0.0521
    226 H           3.5653    0.1393    9.6039 H      38  UNL38       0.0521
    227 H           3.4311    1.3126    8.2681 H      38  UNL38       0.0521
    228 H           1.4414   -0.5464    9.0850 H      38  UNL38       0.2090
    229 O           1.7871    1.0665   11.0471 O.3    39  UNL39      -0.3982
    230 C           0.3713    1.0665   11.0471 C.3    39  UNL39       0.0330
    231 H           0.0060    0.2975   11.7323 H      39  UNL39       0.0521
    232 H           0.0061    0.8718   10.0358 H      39  UNL39       0.0521
    233 H           0.0160    2.0451   11.3783 H      39  UNL39       0.0521
    234 H           2.0728    0.1861   10.7491 H      39  UNL39       0.2090
    235 O           1.6896   -0.2326   14.9868 O.3    40  UNL40      -0.3982
    236 C           1.7883   -0.0532   13.5859 C.3    40  UNL40       0.0330
    237 H           2.1603   -0.9718   13.1253 H      40  UNL40       0.0521
    238 H           2.4672    0.7756   13.3708 H      40  UNL40       0.0521
    239 H           0.7979    0.1769   13.1864 H      40  UNL40       0.0521
    240 H           2.5830   -0.4353   15.3126 H      40  UNL40       0.2090
    241 O           1.3493   -0.4357   17.2631 O.3    41  UNL41      -0.3982
    242 C           1.5541    0.9652   17.2631 C.3    41  UNL41       0.0330
    243 H           2.3878    1.2125   17.9249 H      41  UNL41       0.0521
    244 H           0.6446    1.4672   17.6020 H      41  UNL41       0.0521
    245 H           1.7897    1.2898   16.2469 H      41  UNL41       0.0521
    246 H           1.1422   -0.6942   18.1773 H      41  UNL41       0.2090
    247 O           3.6816    3.2518    0.6254 O.3    42  UNL42      -0.3982
    248 C           2.2658    3.2518    0.6254 C.3    42  UNL42       0.0330
    249 H           1.9005    2.4828    1.3106 H      42  UNL42       0.0521
    250 H           1.9006    3.0571   -0.3859 H      42  UNL42       0.0521
    251 H           1.9105    4.2304    0.9566 H      42  UNL42       0.0521
    252 H           3.9673    2.3714    0.3274 H      42  UNL42       0.2090
    253 O           3.5581    2.5982    3.9420 O.3    43  UNL43      -0.3982
    254 C           3.4356    1.4639    3.1036 C.3    43  UNL43       0.0330
    255 H           3.9928    1.6315    2.1786 H      43  UNL43       0.0521
    256 H           2.3807    1.2879    2.8792 H      43  UNL43       0.0521
    257 H           3.8459    0.5936    3.6211 H      43  UNL43       0.0521
    258 H           3.1859    3.3540    3.4563 H      43  UNL43       0.2090
    259 O           1.5354    3.2697    7.4073 O.3    44  UNL44      -0.3982
    260 C           2.8522    3.2697    6.8871 C.3    44  UNL44       0.0330
    261 H           2.9402    2.5007    6.1156 H      44  UNL44       0.0521
    262 H           3.5634    3.0750    7.6935 H      44  UNL44       0.0521
    263 H           3.0609    4.2483    6.4485 H      44  UNL44       0.0521
    264 H           1.3792    2.3893    7.7894 H      44  UNL44       0.2090
    265 O           4.0355    3.8457   10.3504 O.3    45  UNL45      -0.3982
    266 C           2.6197    3.8457   10.3504 C.3    45  UNL45       0.0330
    267 H           2.2544    3.0767   11.0356 H      45  UNL45       0.0521
    268 H           2.2545    3.6510    9.3391 H      45  UNL45       0.0521
    269 H           2.2644    4.8243   10.6816 H      45  UNL45       0.0521
    270 H           4.3212    2.9653   10.0524 H      45  UNL45       0.2090
    271 O           3.8124    4.3869   13.2911 O.3    46  UNL46      -0.3982
    272 C           3.1293    3.3007   13.8894 C.3    46  UNL46       0.0330
    273 H           3.5532    2.3598   13.5297 H      46  UNL46       0.0521
    274 H           2.0673    3.3539   13.6378 H      46  UNL46       0.0521
    275 H           3.2480    3.3603   14.9738 H      46  UNL46       0.0521
    276 H           3.6892    4.3073   12.3298 H      46  UNL46       0.2090
    277 O           0.4820    4.5159   17.0060 O.3    47  UNL47      -0.3982
    278 C           1.8917    4.5159   17.1371 C.3    47  UNL47       0.0330
    279 H           2.3189    3.7469   16.4887 H      47  UNL47       0.0521
    280 H           2.1617    4.3212   18.1779 H      47  UNL47       0.0521
    281 H           2.2762    5.4945   16.8403 H      47  UNL47       0.0521
    282 H           0.1699    3.6355   17.2763 H      47  UNL47       0.2090
    283 O           4.3950    6.1783    2.6849 O.3    48  UNL48      -0.3982
    284 C           2.9792    6.1783    2.6849 C.3    48  UNL48       0.0330
    285 H           2.6139    6.9675    3.3467 H      48  UNL48       0.0521
    286 H           2.6140    5.2058    3.0238 H      48  UNL48       0.0521
    287 H           2.6239    6.3645    1.6687 H      48  UNL48       0.0521
    288 H           4.6807    6.0108    3.5992 H      48  UNL48       0.2090
    289 O           3.0644    6.3350    5.3940 O.3    49  UNL49      -0.3982
    290 C           1.6486    6.3350    5.3940 C.3    49  UNL49       0.0330
    291 H           1.2833    5.5660    6.0792 H      49  UNL49       0.0521
    292 H           1.2834    6.1403    4.3827 H      49  UNL49       0.0521
    293 H           1.2933    7.3136    5.7252 H      49  UNL49       0.0521
    294 H           3.3501    5.4546    5.0960 H      49  UNL49       0.2090
    295 O           2.4018    6.2580    8.3575 O.3    50  UNL50      -0.3982
    296 C           0.9860    6.2580    8.3575 C.3    50  UNL50       0.0330
    297 H           0.6207    7.0472    9.0193 H      50  UNL50       0.0521
    298 H           0.6208    5.2854    8.6964 H      50  UNL50       0.0521
    299 H           0.6307    6.4441    7.3413 H      50  UNL50       0.0521
    300 H           2.6875    6.0904    9.2718 H      50  UNL50       0.2090
    301 O           0.9853    8.2337   11.6242 O.3    51  UNL51      -0.3982
    302 C           1.7420    7.0371   11.6242 C.3    51  UNL51       0.0330
    303 H           1.2702    6.3065   12.2860 H      51  UNL51       0.0521
    304 H           2.7591    7.2482   11.9631 H      51  UNL51       0.0521
    305 H           1.7745    6.6373   10.6080 H      51  UNL51       0.0521
    306 H           0.9742    8.5647   12.5384 H      51  UNL51       0.2090
    307 O           2.9207    7.1336   14.9196 O.3    52  UNL52      -0.3982
    308 C           1.5049    7.1336   14.9196 C.3    52  UNL52       0.0330
    309 H           1.1396    6.3645   15.6048 H      52  UNL52       0.0521
    310 H           1.1397    6.9388   13.9083 H      52  UNL52       0.0521
    311 H           1.1496    8.1122   15.2508 H      52  UNL52       0.0521
    312 H           3.2064    6.2531   14.6216 H      52  UNL52       0.2090
    313 O           5.8655    6.1796   17.5911 O.3    53  UNL53      -0.3982
    314 C           4.4497    6.1796   17.5911 C.3    53  UNL53       0.0330
    315 H           4.0844    6.0909   16.5649 H      53  UNL53       0.0521
    316 H           4.0845    7.1064   18.0403 H      53  UNL53       0.0521
    317 H           4.0944    5.3286   18.1769 H      53  UNL53       0.0521
    318 H           6.1512    6.9453   17.0641 H      53  UNL53       0.2090
    319 O           2.9208    8.5274    0.9169 O.3    54  UNL54      -0.3982
    320 C           1.5050    8.5274    0.9169 C.3    54  UNL54       0.0330
    321 H           1.1397    7.9606    0.0569 H      54  UNL54       0.0521
    322 H           1.1398    9.5562    0.8705 H      54  UNL54       0.0521
    323 H           1.1497    8.0581    1.8373 H      54  UNL54       0.0521
    324 H           3.2065    8.9496    0.0888 H      54  UNL54       0.2090
    325 O           2.4527    9.1535    4.0251 O.3    55  UNL55      -0.3982
    326 C           1.0369    9.1535    4.0251 C.3    55  UNL55       0.0330
    327 H           0.6716    9.6131    4.9469 H      55  UNL55       0.0521
    328 H           0.6717    8.1266    3.9478 H      55  UNL55       0.0521
    329 H           0.6816    9.7298    3.1676 H      55  UNL55       0.0521
    330 H           2.7384    8.6351    4.7965 H      55  UNL55       0.2090
    331 O           1.2698    9.4216    9.2261 O.3    56  UNL56      -0.3982
    332 C           1.4746    9.4216    7.8251 C.3    56  UNL56       0.0330
    333 H           0.8494    8.6526    7.3646 H      56  UNL56       0.0521
    334 H           2.5280    9.2269    7.6100 H      56  UNL56       0.0521
    335 H           1.1982   10.4002    7.4257 H      56  UNL56       0.0521
    336 H           1.5234    8.5412    9.5518 H      56  UNL56       0.2090
    337 O           4.5499   10.8044   10.8238 O.3    57  UNL57      -0.3982
    338 C           3.5731    9.9467   10.2627 C.3    57  UNL57       0.0330
    339 H           2.8842   10.5308    9.6474 H      57  UNL57       0.0521
    340 H           3.0260    9.4432   11.0634 H      57  UNL57       0.0521
    341 H           4.0714    9.2004    9.6396 H      57  UNL57       0.0521
    342 H           4.0781   11.4553   11.3710 H      57  UNL57       0.2090
    343 O           2.7631    9.3641   13.6012 O.3    58  UNL58      -0.3982
    344 C           2.0801   10.6042   13.6012 C.3    58  UNL58       0.0330
    345 H           2.6301   11.3242   12.9901 H      58  UNL58       0.0521
    346 H           1.9916   10.9724   14.6262 H      58  UNL58       0.0521
    347 H           1.0820   10.4601   13.1808 H      58  UNL58       0.0521
    348 H           3.6446    9.5235   13.9794 H      58  UNL58       0.2090
    349 O           4.4534    9.2482   16.9796 O.3    59  UNL59      -0.3982
    350 C           3.0376    9.2482   16.9796 C.3    59  UNL59       0.0330
    351 H           2.6723    8.4792   17.6648 H      59  UNL59       0.0521
    352 H           2.6724    9.0535   15.9683 H      59  UNL59       0.0521
    353 H           2.6823   10.2268   17.3108 H      59  UNL59       0.0521
    354 H           4.7391    8.3678   16.6816 H      59  UNL59       0.2090
    355 O           3.4896   12.9248    0.9414 O.3    60  UNL60      -0.3982
    356 C           2.0738   12.9248    0.9414 C.3    60  UNL60       0.0330
    357 H           1.7085   12.1558    1.6266 H      60  UNL60       0.0521
    358 H           1.7086   12.7301   -0.0699 H      60  UNL60       0.0521
    359 H           1.7185   13.9034    1.2726 H      60  UNL60       0.0521
    360 H           3.7753   12.0444    0.6434 H      60  UNL60       0.2090
    361 O           3.6812   12.1931    4.3553 O.3    61  UNL61      -0.3982
    362 C           2.2654   12.1931    4.3553 C.3    61  UNL61       0.0330
    363 H           1.9001   11.1788    4.5344 H      61  UNL61       0.0521
    364 H           1.9002   12.5586    3.3924 H      61  UNL61       0.0521
    365 H           1.9101   12.8519    5.1511 H      61  UNL61       0.0521
    366 H           3.9669   11.6004    3.6393 H      61  UNL61       0.2090
    367 O           4.6172   12.2947    6.7086 O.3    62  UNL62      -0.3982
    368 C           3.8053   11.1605    6.9511 C.3    62  UNL62       0.0330
    369 H           2.8094   11.3280    6.5334 H      62  UNL62       0.0521
    370 H           3.7359   10.9844    8.0273 H      62  UNL62       0.0521
    371 H           4.2580   10.2902    6.4702 H      62  UNL62       0.0521
    372 H           4.1905   13.0505    7.1471 H      62  UNL62       0.2090
    373 O           4.4342   13.1222    9.3903 O.3    63  UNL63      -0.3982
    374 C           3.0184   13.1222    9.3903 C.3    63  UNL63       0.0330
    375 H           2.6531   12.3532   10.0755 H      63  UNL63       0.0521
    376 H           2.6532   12.9275    8.3790 H      63  UNL63       0.0521
    377 H           2.6631   14.1008    9.7215 H      63  UNL63       0.0521
    378 H           4.7199   12.2418    9.0923 H      63  UNL63       0.2090
    379 O           0.6720   13.1643   16.6788 O.3    64  UNL64      -0.3982
    380 C           0.8767   13.1643   15.2779 C.3    64  UNL64       0.0330
    381 H           0.2516   12.3953   14.8173 H      64  UNL64       0.0521
    382 H           1.9302   12.9696   15.0628 H      64  UNL64       0.0521
    383 H           0.6004   14.1429   14.8784 H      64  UNL64       0.0521
    384 H           0.9255   12.2839   17.0046 H      64  UNL64       0.2090
    385 O           4.7800   12.4570   17.4924 O.3    65  UNL65      -0.3982
    386 C           3.3642   12.4570   17.4924 C.3    65  UNL65       0.0330
    387 H           2.9989   11.6880   18.1776 H      65  UNL65       0.0521
    388 H           2.9990   12.2623   16.4811 H      65  UNL65       0.0521
    389 H           3.0089   13.4356   17.8236 H      65  UNL65       0.0521
    390 H           5.0657   11.5766   17.1944 H      65  UNL65       0.2090
    391 O           2.8528   16.3702    1.1213 O.3    66  UNL66      -0.3982
    392 C           1.4370   16.3702    1.1213 C.3    66  UNL66       0.0330
    393 H           1.0717   15.6012    1.8065 H      66  UNL66       0.0521
    394 H           1.0718   16.1755    0.1100 H      66  UNL66       0.0521
    395 H           1.0817   17.3488    1.4525 H      66  UNL66       0.0521
    396 H           3.1385   15.4898    0.8233 H      66  UNL66       0.2090
    397 O           2.5840   14.7738    4.2808 O.3    67  UNL67      -0.3982
    398 C           2.7887   16.1747    4.2808 C.3    67  UNL67       0.0330
    399 H           2.0806   16.6474    4.9660 H      67  UNL67       0.0521
    400 H           2.6489   16.5643    3.2695 H      67  UNL67       0.0521
    401 H           3.8084   16.3848    4.6120 H      67  UNL67       0.0521
    402 H           1.6715   14.6185    3.9828 H      67  UNL67       0.2090
    403 O           2.6662   15.0234    7.4554 O.3    68  UNL68      -0.3982
    404 C           2.7650   16.4243    7.2761 C.3    68  UNL68       0.0330
    405 H           3.0235   16.8970    8.2269 H      68  UNL68       0.0521
    406 H           1.8117   16.8139    6.9106 H      68  UNL68       0.0521
    407 H           3.5470   16.6344    6.5427 H      68  UNL68       0.0521
    408 H           1.9649   14.8681    8.1109 H      68  UNL68       0.2090
    409 O           2.9778   16.5653   10.5334 O.3    69  UNL69      -0.3982
    410 C           1.5620   16.5653   10.5334 C.3    69  UNL69       0.0330
    411 H           1.1967   15.7963   11.2186 H      69  UNL69       0.0521
    412 H           1.1968   16.3706    9.5221 H      69  UNL69       0.0521
    413 H           1.2067   17.5438   10.8646 H      69  UNL69       0.0521
    414 H           3.2635   15.6849   10.2354 H      69  UNL69       0.2090
    415 O           3.8619   16.2682   14.8227 O.3    70  UNL70      -0.3982
    416 C           3.0706   15.9551   13.6911 C.3    70  UNL70       0.0330
    417 H           2.9589   14.8709   13.6121 H      70  UNL70       0.0521
    418 H           3.5484   16.3495   12.7910 H      70  UNL70       0.0521
    419 H           2.0857   16.4131   13.8086 H      70  UNL70       0.0521
    420 H           4.7290   15.8487   14.6898 H      70  UNL70       0.2090
    421 O           3.3833   15.5655   17.5911 O.3    71  UNL71      -0.3982
    422 C           1.9675   15.5655   17.5911 C.3    71  UNL71       0.0330
    423 H           1.6022   15.4768   16.5649 H      71  UNL71       0.0521
    424 H           1.6023   16.4923   18.0403 H      71  UNL71       0.0521
    425 H           1.6122   14.7145   18.1769 H      71  UNL71       0.0521
    426 H           3.6690   16.3312   17.0641 H      71  UNL71       0.2090
    427 O           4.3758   18.9860    1.7508 O.3    72  UNL72      -0.3982
    428 C           2.9600   18.9860    1.7508 C.3    72  UNL72       0.0330
    429 H           2.5947   18.8972    0.7247 H      72  UNL72       0.0521
    430 H           2.5948   19.9127    2.2000 H      72  UNL72       0.0521
    431 H           2.6047   18.1350    2.3366 H      72  UNL72       0.0521
    432 H           4.6615   19.7516    1.2238 H      72  UNL72       0.2090
    433 O           4.7246   19.2268    5.2712 O.3    73  UNL73      -0.3982
    434 C           3.3088   19.2268    5.2712 C.3    73  UNL73       0.0330
    435 H           2.9435   19.0380    4.2586 H      73  UNL73       0.0521
    436 H           2.9436   20.1930    5.6276 H      73  UNL73       0.0521
    437 H           2.9535   18.4372    5.9374 H      73  UNL73       0.0521
    438 H           5.0103   19.9371    4.6718 H      73  UNL73       0.2090
    439 O           2.3110   19.6736    8.1392 O.3    74  UNL74      -0.3982
    440 C           0.8952   19.6736    8.1392 C.3    74  UNL74       0.0330
    441 H           0.5299   18.9046    8.8244 H      74  UNL74       0.0521
    442 H           0.5300   19.4789    7.1279 H      74  UNL74       0.0521
    443 H           0.5399   20.6522    8.4704 H      74  UNL74       0.0521
    444 H           2.5967   18.7932    7.8412 H      74  UNL74       0.2090
    445 O           4.4485   18.9404    9.7503 O.3    75  UNL75      -0.3982
    446 C           3.6572   19.2534   10.8819 C.3    75  UNL75       0.0330
    447 H           3.3606   18.3307   11.3868 H      75  UNL75       0.0521
    448 H           2.7712   19.8093   10.5655 H      75  UNL75       0.0521
    449 H           4.2450   19.8685   11.5673 H      75  UNL75       0.0521
    450 H           3.9007   18.3946    9.1608 H      75  UNL75       0.2090
    451 O           1.1101   19.0595   14.0922 O.3    76  UNL76      -0.3982
    452 C           2.5198   19.1743   14.0290 C.3    76  UNL76       0.0330
    453 H           2.8201   19.4305   13.0099 H      76  UNL76       0.0521
    454 H           2.9771   18.2280   14.3279 H      76  UNL76       0.0521
    455 H           2.8429   19.9641   14.7111 H      76  UNL76       0.0521
    456 H           0.8532   18.3517   13.4770 H      76  UNL76       0.2090
    457 O           4.4494   18.7582   17.4924 O.3    77  UNL77      -0.3982
    458 C           3.0336   18.7582   17.4924 C.3    77  UNL77       0.0330
    459 H           2.6683   17.9892   18.1776 H      77  UNL77       0.0521
    460 H           2.6684   18.5635   16.4811 H      77  UNL77       0.0521
    461 H           2.6783   19.7368   17.8236 H      77  UNL77       0.0521
    462 H           4.7351   17.8778   17.1944 H      77  UNL77       0.2090
    463 O           2.9126   21.4901    0.9310 O.3    78  UNL78      -0.3982
    464 C           3.1174   22.8910    0.9310 C.3    78  UNL78       0.0330
    465 H           2.4093   23.3637    1.6162 H      78  UNL78       0.0521
    466 H           2.9775   23.2805   -0.0803 H      78  UNL78       0.0521
    467 H           4.1370   23.1010    1.2622 H      78  UNL78       0.0521
    468 H           2.0001   21.3347    0.6330 H      78  UNL78       0.2090
    469 O           3.4522   21.8219    3.7750 O.3    79  UNL79      -0.3982
    470 C           2.0364   21.8219    3.7750 C.3    79  UNL79       0.0330
    471 H           1.6711   21.0529    4.4602 H      79  UNL79       0.0521
    472 H           1.6712   21.6272    2.7637 H      79  UNL79       0.0521
    473 H           1.6811   22.8005    4.1062 H      79  UNL79       0.0521
    474 H           3.7379   20.9415    3.4769 H      79  UNL79       0.2090
    475 O           2.3075   22.7467    8.0290 O.3    80  UNL80      -0.3982
    476 C           1.6244   22.7467    6.7889 C.3    80  UNL80       0.0330
    477 H           0.8480   21.9777    6.7995 H      80  UNL80       0.0521
    478 H           2.3340   22.5520    5.9811 H      80  UNL80       0.0521
    479 H           1.1629   23.7253    6.6375 H      80  UNL80       0.0521
    480 H           2.7064   21.8663    8.1355 H      80  UNL80       0.2090
    481 O           3.3201   22.2839   11.0043 O.3    81  UNL81      -0.3982
    482 C           1.9043   22.2839   11.0043 C.3    81  UNL81       0.0330
    483 H           1.5390   21.5149   11.6895 H      81  UNL81       0.0521
    484 H           1.5391   22.0892    9.9930 H      81  UNL81       0.0521
    485 H           1.5490   23.2625   11.3355 H      81  UNL81       0.0521
    486 H           3.6058   21.4035   10.7063 H      81  UNL81       0.2090
    487 O           4.1911   23.2954   13.0064 O.3    82  UNL82      -0.3982
    488 C           3.3998   22.4240   13.7932 C.3    82  UNL82       0.0330
    489 H           3.2881   22.8392   14.7979 H      82  UNL82       0.0521
    490 H           3.8776   21.4426   13.8440 H      82  UNL82       0.0521
    491 H           2.4149   22.3239   13.3311 H      82  UNL82       0.0521
    492 H           5.0582   23.3646   13.4409 H      82  UNL82       0.2090
    493 O           1.4092   22.6233   15.9533 O.3    83  UNL83      -0.3982
    494 C           2.0637   21.4350   16.3585 C.3    83  UNL83       0.0330
    495 H           2.0132   21.3429   17.4463 H      83  UNL83       0.0521
    496 H           3.1063   21.4630   16.0326 H      83  UNL83       0.0521
    497 H           1.5634   20.5794   15.8989 H      83  UNL83       0.0521
    498 H           1.8750   23.3646   16.3765 H      83  UNL83       0.2090
    499 O           4.0310   25.7852   -0.2035 O.3    84  UNL84      -0.3982
    500 C           2.6152   25.7852   -0.2035 C.3    84  UNL84       0.0330
    501 H           2.2499   25.0162    0.4817 H      84  UNL84       0.0521
    502 H           2.2500   25.5905   -1.2148 H      84  UNL84       0.0521
    503 H           2.2599   26.7638    0.1277 H      84  UNL84       0.0521
    504 H           4.3167   24.9048   -0.5015 H      84  UNL84       0.2090
    505 O           2.8500   25.9399    2.5430 O.3    85  UNL85      -0.3982
    506 C           1.4342   25.9399    2.5430 C.3    85  UNL85       0.0330
    507 H           1.0689   25.1709    3.2282 H      85  UNL85       0.0521
    508 H           1.0690   25.7452    1.5317 H      85  UNL85       0.0521
    509 H           1.0789   26.9185    2.8742 H      85  UNL85       0.0521
    510 H           3.1357   25.0595    2.2450 H      85  UNL85       0.2090
    511 O           2.1525   26.2115    5.2454 O.3    86  UNL86      -0.3982
    512 C           0.7367   26.2115    5.2454 C.3    86  UNL86       0.0330
    513 H           0.3714   26.4407    6.2496 H      86  UNL86       0.0521
    514 H           0.3715   25.2318    4.9281 H      86  UNL86       0.0521
    515 H           0.3814   26.9738    4.5481 H      86  UNL86       0.0521
    516 H           2.4382   25.5258    5.8728 H      86  UNL86       0.2090
    517 O           0.2513   25.5071    8.2859 O.3    87  UNL87      -0.3982
    518 C           1.5680   26.0272    8.2859 C.3    87  UNL87       0.0330
    519 H           1.6995   26.6886    7.4259 H      87  UNL87       0.0521
    520 H           2.2857   25.2045    8.2395 H      87  UNL87       0.0521
    521 H           1.7261   26.5942    9.2063 H      87  UNL87       0.0521
    522 H           0.1407   25.0094    7.4578 H      87  UNL87       0.2090
    523 O           3.6122   24.3380    9.5204 O.3    88  UNL88      -0.3982
    524 C           4.0279   25.4391   10.3073 C.3    88  UNL88       0.0330
    525 H           4.2844   25.0940   11.3120 H      88  UNL88       0.0521
    526 H           3.2230   26.1763   10.3581 H      88  UNL88       0.0521
    527 H           4.9072   25.8941    9.8452 H      88  UNL88       0.0521
    528 H           2.8311   23.9550    9.9550 H      88  UNL88       0.2090
    529 O           3.3208   25.9632   14.5210 O.3    89  UNL89      -0.3982
    530 C           2.7236   26.0821   13.2428 C.3    89  UNL89       0.0330
    531 H           3.1908   26.9053   12.6965 H      89  UNL89       0.0521
    532 H           1.6527   26.2672   13.3559 H      89  UNL89       0.0521
    533 H           2.8741   25.1505   12.6924 H      89  UNL89       0.0521
    534 H           3.1711   26.8042   14.9856 H      89  UNL89       0.2090
    535 O           3.9053   24.5202   17.2568 O.3    90  UNL90      -0.3982
    536 C           4.5397   25.7859   17.2568 C.3    90  UNL90       0.0330
    537 H           5.5591   25.6836   17.6373 H      90  UNL90       0.0521
    538 H           3.9731   26.4784   17.8840 H      90  UNL90       0.0521
    539 H           4.5716   26.1674   16.2336 H      90  UNL90       0.0521
    540 H           3.8918   24.2074   18.1774 H      90  UNL90       0.2090
    541 O           4.3933   28.8302    1.3765 O.3    91  UNL91      -0.3982
    542 C           2.9775   28.8302    1.3765 C.3    91  UNL91       0.0330
    543 H           2.6122   28.0612    2.0617 H      91  UNL91       0.0521
    544 H           2.6123   28.6355    0.3652 H      91  UNL91       0.0521
    545 H           2.6222   29.8088    1.7077 H      91  UNL91       0.0521
    546 H           4.6790   27.9498    1.0785 H      91  UNL91       0.2090
    547 O           3.1832   29.4248    4.4349 O.3    92  UNL92      -0.3982
    548 C           1.7674   29.4248    4.4349 C.3    92  UNL92       0.0330
    549 H           1.4021   28.6558    5.1201 H      92  UNL92       0.0521
    550 H           1.4022   29.2301    3.4236 H      92  UNL92       0.0521
    551 H           1.4121   30.4034    4.7661 H      92  UNL92       0.0521
    552 H           3.4689   28.5444    4.1369 H      92  UNL92       0.2090
    553 O           2.5445   29.2225    7.8273 O.3    93  UNL93      -0.3982
    554 C           1.1287   29.2225    7.8273 C.3    93  UNL93       0.0330
    555 H           0.7634   28.4535    8.5125 H      93  UNL93       0.0521
    556 H           0.7635   29.0278    6.8160 H      93  UNL93       0.0521
    557 H           0.7734   30.2011    8.1585 H      93  UNL93       0.0521
    558 H           2.8302   28.3421    7.5293 H      93  UNL93       0.2090
    559 O           2.5618   29.7199   10.4934 O.3    94  UNL94      -0.3982
    560 C           2.7665   28.3190   10.4934 C.3    94  UNL94       0.0330
    561 H           3.5803   28.0687   11.1786 H      94  UNL94       0.0521
    562 H           3.0120   27.9858    9.4821 H      94  UNL94       0.0521
    563 H           1.8496   27.8259   10.8246 H      94  UNL94       0.0521
    564 H           3.3916   30.1299   10.1954 H      94  UNL94       0.2090
    565 O           1.6524   29.1858   14.4185 O.3    95  UNL95      -0.3982
    566 C           1.8572   29.1858   13.0176 C.3    95  UNL95       0.0330
    567 H           1.2320   28.4168   12.5570 H      95  UNL95       0.0521
    568 H           2.9107   28.9911   12.8025 H      95  UNL95       0.0521
    569 H           1.5808   30.1644   12.6181 H      95  UNL95       0.0521
    570 H           1.9060   28.3054   14.7443 H      95  UNL95       0.2090
    571 O           3.0101   28.7652   17.4924 O.3    96  UNL96      -0.3982
    572 C           1.5943   28.7652   17.4924 C.3    96  UNL96       0.0330
    573 H           1.2290   27.9962   18.1776 H      96  UNL96       0.0521
    574 H           1.2291   28.5705   16.4811 H      96  UNL96       0.0521
    575 H           1.2390   29.7438   17.8236 H      96  UNL96       0.0521
    576 H           3.2958   27.8848   17.1944 H      96  UNL96       0.2090
    577 O           3.1172   32.0032    0.7979 O.3    97  UNL97      -0.3982
    578 C           4.4157   31.4658    0.6263 C.3    97  UNL97       0.0330
    579 H           4.8210   31.1725    1.5979 H      97  UNL97       0.0521
    580 H           5.0620   32.2139    0.1608 H      97  UNL97       0.0521
    581 H           4.3541   30.5875   -0.0206 H      97  UNL97       0.0521
    582 H           3.2037   32.7805    1.3757 H      97  UNL97       0.2090
    583 O           4.8868   32.0560    3.7602 O.3    98  UNL98      -0.3982
    584 C           3.4710   32.0560    3.7602 C.3    98  UNL98       0.0330
    585 H           3.1057   32.9120    3.1874 H      98  UNL98       0.0521
    586 H           3.1058   32.1096    4.7887 H      98  UNL98       0.0521
    587 H           3.1157   31.1323    3.2975 H      98  UNL98       0.0521
    588 H           5.1725   32.8870    4.1766 H      98  UNL98       0.2090
    589 O           3.7864   31.8602    7.0455 O.3    99  UNL99      -0.3982
    590 C           2.3706   31.8602    7.0455 C.3    99  UNL99       0.0330
    591 H           2.0053   32.6893    6.4345 H      99  UNL99       0.0521
    592 H           2.0054   31.9604    8.0705 H      99  UNL99       0.0521
    593 H           2.0153   30.9165    6.6251 H      99  UNL99       0.0521
    594 H           4.0721   32.7092    7.4238 H      99  UNL99       0.2090
    595 O           4.6430   32.1650   11.1426 O.3   100  UNL100     -0.3982
    596 C           3.8517   32.4780   10.0110 C.3   100  UNL100      0.0330
    597 H           2.7935   32.3987   10.2720 H     100  UNL100      0.0521
    598 H           4.0898   31.7891    9.1970 H     100  UNL100      0.0521
    599 H           4.0714   33.5008    9.6958 H     100  UNL100      0.0521
    600 H           4.4264   31.2524   11.3990 H     100  UNL100      0.2090
    601 O           3.5768   32.2686   13.5412 O.3   101  UNL101     -0.3982
    602 C           2.1610   32.2686   13.5412 C.3   101  UNL101      0.0330
    603 H           1.7957   33.2778   13.7472 H     101  UNL101      0.0521
    604 H           1.7958   31.5749   14.3024 H     101  UNL101      0.0521
    605 H           1.8057   31.9483   12.5590 H     101  UNL101      0.0521
    606 H           3.8625   32.5568   14.4249 H     101  UNL101      0.2090
    607 O           1.1964   31.7831   17.8522 O.3   102  UNL102     -0.3982
    608 C           1.1147   31.5954   16.4513 C.3   102  UNL102      0.0330
    609 H           0.6592   32.4756   15.9907 H     102  UNL102      0.0521
    610 H           0.5155   30.7073   16.2361 H     102  UNL102      0.0521
    611 H           2.1222   31.4580   16.0518 H     102  UNL102      0.0521
    612 H           0.2880   31.9022   18.1780 H     102  UNL102      0.2090
    613 O           1.8710   35.0640    2.4626 O.3   103  UNL103     -0.3982
    614 C           2.7183   35.0640    1.3283 C.3   103  UNL103      0.0330
    615 H           2.3879   34.2950    0.6256 H     103  UNL103      0.0521
    616 H           3.7470   34.8693    1.6410 H     103  UNL103      0.0521
    617 H           2.6656   36.0426    0.8455 H     103  UNL103      0.0521
    618 H           1.9387   34.1836    2.8698 H     103  UNL103      0.2090
    619 O           4.4996   35.0636    5.5082 O.3   104  UNL104     -0.3982
    620 C           3.0838   35.0636    5.5082 C.3   104  UNL104      0.0330
    621 H           2.7185   34.2946    6.1934 H     104  UNL104      0.0521
    622 H           2.7186   34.8689    4.4969 H     104  UNL104      0.0521
    623 H           2.7285   36.0422    5.8394 H     104  UNL104      0.0521
    624 H           4.7853   34.1832    5.2102 H     104  UNL104      0.2090
    625 O           2.5090   35.0639    8.3757 O.3   105  UNL105     -0.3982
    626 C           1.0932   35.0639    8.3757 C.3   105  UNL105      0.0330
    627 H           0.7279   34.2949    9.0609 H     105  UNL105      0.0521
    628 H           0.7280   34.8692    7.3644 H     105  UNL105      0.0521
    629 H           0.7379   36.0425    8.7069 H     105  UNL105      0.0521
    630 H           2.7947   34.1835    8.0777 H     105  UNL105      0.2090
    631 O           3.4485   35.0636   12.3445 O.3   106  UNL106     -0.3982
    632 C           2.7654   35.0636   11.1044 C.3   106  UNL106      0.0330
    633 H           1.9890   34.2946   11.1150 H     106  UNL106      0.0521
    634 H           3.4750   34.8689   10.2966 H     106  UNL106      0.0521
    635 H           2.3039   36.0422   10.9530 H     106  UNL106      0.0521
    636 H           3.8473   34.1832   12.4510 H     106  UNL106      0.2090
    637 O           2.9986   35.7363   14.9321 O.3   107  UNL107     -0.3982
    638 C           4.2893   35.1545   14.9341 C.3   107  UNL107      0.0330
    639 H           5.0282   35.9037   14.6391 H     107  UNL107      0.0521
    640 H           4.3112   34.3120   14.2386 H     107  UNL107      0.0521
    641 H           4.5169   34.7984   15.9416 H     107  UNL107      0.0521
    642 H           2.8247   36.0427   14.0257 H     107  UNL107      0.2090
    643 O           2.2604   35.7576   17.2567 O.3   108  UNL108     -0.3982
    644 C           2.3305   34.3435   17.2567 C.3   108  UNL108      0.0330
    645 H           1.3926   33.9313   17.6372 H     108  UNL108      0.0521
    646 H           3.1644   34.0192   17.8839 H     108  UNL108      0.0521
    647 H           2.4903   33.9957   16.2335 H     108  UNL108      0.0521
    648 H           2.1183   36.0366   18.1773 H     108  UNL108      0.2090
    649 O           5.1359   -0.3945    1.0483 O.3   109  UNL109     -0.3982
    650 C           6.3815   -0.9180    0.6253 C.3   109  UNL109      0.0330
    651 H           6.7826   -1.5771    1.3993 H     109  UNL109      0.0521
    652 H           7.0769   -0.0970    0.4346 H     109  UNL109      0.0521
    653 H           6.2333   -1.4882   -0.2947 H     109  UNL109      0.0521
    654 H           5.2991    0.1059    1.8659 H     109  UNL109      0.2090
    655 O           7.8547    0.5255    5.3409 O.3   110  UNL110     -0.3982
    656 C           6.4389    0.5255    5.3409 C.3   110  UNL110      0.0330
    657 H           6.0736   -0.2435    6.0261 H     110  UNL110      0.0521
    658 H           6.0737    0.3308    4.3296 H     110  UNL110      0.0521
    659 H           6.0836    1.5041    5.6721 H     110  UNL110      0.0521
    660 H           8.1404   -0.3549    5.0429 H     110  UNL110      0.2090
    661 O           5.5770    0.3575    7.9338 O.3   111  UNL111     -0.3982
    662 C           6.9867    0.3575    8.0649 C.3   111  UNL111      0.0330
    663 H           7.4139   -0.4115    7.4165 H     111  UNL111      0.0521
    664 H           7.2567    0.1628    9.1057 H     111  UNL111      0.0521
    665 H           7.3712    1.3361    7.7680 H     111  UNL111      0.0521
    666 H           5.2650   -0.5229    8.2041 H     111  UNL111      0.2090
    667 O           6.9393    0.5702   11.0371 O.3   112  UNL112     -0.3982
    668 C           5.5235    0.5702   11.0371 C.3   112  UNL112      0.0330
    669 H           5.1582    1.2725   10.2836 H     112  UNL112      0.0521
    670 H           5.1583    0.8577   12.0260 H     112  UNL112      0.0521
    671 H           5.1682   -0.4348   10.7979 H     112  UNL112      0.0521
    672 H           7.2250    1.4744   11.2523 H     112  UNL112      0.2090
    673 O           6.0199   -0.2022   14.2240 O.3   113  UNL113     -0.3982
    674 C           4.6041   -0.2022   14.2240 C.3   113  UNL113      0.0330
    675 H           4.2388   -0.7690   13.3640 H     113  UNL113      0.0521
    676 H           4.2389    0.8266   14.1776 H     113  UNL113      0.0521
    677 H           4.2488   -0.6714   15.1444 H     113  UNL113      0.0521
    678 H           6.3056    0.2200   13.3959 H     113  UNL113      0.2090
    679 O           7.6029    3.5227    1.2243 O.3   114  UNL114     -0.3982
    680 C           6.1871    3.5227    1.2243 C.3   114  UNL114      0.0330
    681 H           5.8218    2.7537    1.9095 H     114  UNL114      0.0521
    682 H           5.8219    3.3280    0.2130 H     114  UNL114      0.0521
    683 H           5.8318    4.5013    1.5555 H     114  UNL114      0.0521
    684 H           7.8886    2.6423    0.9263 H     114  UNL114      0.2090
    685 O           7.0812    3.8442    4.6502 O.3   115  UNL115     -0.3982
    686 C           5.6654    3.8442    4.6502 C.3   115  UNL115      0.0330
    687 H           5.3001    3.0752    5.3354 H     115  UNL115      0.0521
    688 H           5.3002    3.6495    3.6389 H     115  UNL115      0.0521
    689 H           5.3101    4.8228    4.9814 H     115  UNL115      0.0521
    690 H           7.3669    2.9638    4.3522 H     115  UNL115      0.2090
    691 O           7.1836    3.6916    7.5287 O.3   116  UNL116     -0.3982
    692 C           5.7678    3.6916    7.5287 C.3   116  UNL116      0.0330
    693 H           5.4025    3.9207    8.5329 H     116  UNL116      0.0521
    694 H           5.4026    2.7118    7.2113 H     116  UNL116      0.0521
    695 H           5.4125    4.4538    6.8313 H     116  UNL116      0.0521
    696 H           7.4693    3.0058    8.1561 H     116  UNL116      0.2090
    697 O           8.3492    3.7336   10.8239 O.3   117  UNL117     -0.3982
    698 C           6.9334    3.7336   10.8239 C.3   117  UNL117      0.0330
    699 H           6.5681    2.9646   11.5091 H     117  UNL117      0.0521
    700 H           6.5682    3.5389    9.8126 H     117  UNL117      0.0521
    701 H           6.5781    4.7122   11.1551 H     117  UNL117      0.0521
    702 H           8.6349    2.8532   10.5259 H     117  UNL117      0.2090
    703 O           6.1788    3.1895   15.0902 O.3   118  UNL118     -0.3982
    704 C           6.3836    3.1895   13.6893 C.3   118  UNL118      0.0330
    705 H           5.7584    2.4205   13.2288 H     118  UNL118      0.0521
    706 H           7.4370    2.9948   13.4742 H     118  UNL118      0.0521
    707 H           6.1072    4.1681   13.2899 H     118  UNL118      0.0521
    708 H           6.4323    2.3091   15.4160 H     118  UNL118      0.2090
    709 O           5.9221    2.5051   17.4924 O.3   119  UNL119     -0.3982
    710 C           4.5063    2.5051   17.4924 C.3   119  UNL119      0.0330
    711 H           4.1410    1.7361   18.1776 H     119  UNL119      0.0521
    712 H           4.1411    2.3104   16.4811 H     119  UNL119      0.0521
    713 H           4.1510    3.4837   17.8236 H     119  UNL119      0.0521
    714 H           6.2078    1.6247   17.1944 H     119  UNL119      0.2090
    715 O           6.1694    6.1711    0.0261 O.3   120  UNL120     -0.3982
    716 C           4.7536    6.1711    0.0261 C.3   120  UNL120      0.0330
    717 H           4.3883    5.4021    0.7113 H     120  UNL120      0.0521
    718 H           4.3884    5.9764   -0.9852 H     120  UNL120      0.0521
    719 H           4.3983    7.1497    0.3573 H     120  UNL120      0.0521
    720 H           6.4551    5.2907   -0.2719 H     120  UNL120      0.2090
    721 O           6.5682    7.2214    2.6083 O.3   121  UNL121     -0.3982
    722 C           7.4155    6.0871    2.6083 C.3   121  UNL121      0.0330
    723 H           8.2502    6.2547    3.2935 H     121  UNL121      0.0521
    724 H           7.7901    5.9111    1.5970 H     121  UNL121      0.0521
    725 H           6.8441    5.2168    2.9395 H     121  UNL121      0.0521
    726 H           7.1026    7.9772    2.3103 H     121  UNL121      0.2090
    727 O           5.6080    7.2530    5.9652 O.3   122  UNL122     -0.3982
    728 C           4.8168    7.5660    7.0967 C.3   122  UNL122      0.0330
    729 H           4.5201    6.6433    7.6016 H     122  UNL122      0.0521
    730 H           3.9308    8.1218    6.7803 H     122  UNL122      0.0521
    731 H           5.4045    8.1811    7.7821 H     122  UNL122      0.0521
    732 H           5.0602    6.7072    5.3756 H     122  UNL122      0.2090
    733 O           6.7538    6.3645    8.6034 O.3   123  UNL123     -0.3982
    734 C           5.9625    6.6775    9.7349 C.3   123  UNL123      0.0330
    735 H           5.6659    5.7548   10.2398 H     123  UNL123      0.0521
    736 H           5.0765    7.2334    9.4186 H     123  UNL123      0.0521
    737 H           6.5503    7.2926   10.4204 H     123  UNL123      0.0521
    738 H           6.2060    5.8187    8.0139 H     123  UNL123      0.2090
    739 O           6.7134    6.5898   12.4944 O.3   124  UNL124     -0.3982
    740 C           5.2976    6.5898   12.4944 C.3   124  UNL124      0.0330
    741 H           4.9323    7.4190   11.8833 H     124  UNL124      0.0521
    742 H           4.9324    6.6900   13.5194 H     124  UNL124      0.0521
    743 H           4.9423    5.6461   12.0740 H     124  UNL124      0.0521
    744 H           6.9991    7.4388   12.8726 H     124  UNL124      0.2090
    745 O           6.6244    6.7326   15.0156 O.3   125  UNL125     -0.3982
    746 C           8.0210    6.5254   14.9113 C.3   125  UNL125      0.0330
    747 H           8.2407    5.9709   13.9956 H     125  UNL125      0.0521
    748 H           8.3733    5.9666   15.7817 H     125  UNL125      0.0521
    749 H           8.5225    7.4954   14.8765 H     125  UNL125      0.0521
    750 H           6.2067    5.8550   15.0444 H     125  UNL125      0.2090
    751 O           6.6418   10.3233    1.2061 O.3   126  UNL126     -0.3982
    752 C           5.2260   10.3233    1.2061 C.3   126  UNL126      0.0330
    753 H           4.8607   10.9673    2.0099 H     126  UNL126      0.0521
    754 H           4.8608    9.3032    1.3475 H     126  UNL126      0.0521
    755 H           4.8707   10.7053    0.2462 H     126  UNL126      0.0521
    756 H           6.9275    9.9796    2.0697 H     126  UNL126      0.2090
    757 O           6.6700    9.0855    4.1013 O.3   127  UNL127     -0.3982
    758 C           5.2542    9.0855    4.1013 C.3   127  UNL127      0.0330
    759 H           4.8889    9.5450    5.0230 H     127  UNL127      0.0521
    760 H           4.8890    8.0585    4.0239 H     127  UNL127      0.0521
    761 H           4.8989    9.6617    3.2438 H     127  UNL127      0.0521
    762 H           6.9557    8.5670    4.8727 H     127  UNL127      0.2090
    763 O           7.9567    9.0169    8.4968 O.3   128  UNL128     -0.3982
    764 C           9.2735    9.0169    7.9766 C.3   128  UNL128      0.0330
    765 H           9.9903    8.9282    8.7968 H     128  UNL128      0.0521
    766 H           9.4481    9.9436    7.4247 H     128  UNL128      0.0521
    767 H           9.3887    8.1659    7.3013 H     128  UNL128      0.0521
    768 H           7.8846    9.7825    9.0919 H     128  UNL128      0.2090
    769 O           8.1158    9.6878   11.3519 O.3   129  UNL129     -0.3982
    770 C           6.7000    9.6878   11.3519 C.3   129  UNL129      0.0330
    771 H           6.3347    9.5991   10.3258 H     129  UNL129      0.0521
    772 H           6.3348   10.6145   11.8012 H     129  UNL129      0.0521
    773 H           6.3447    8.8368   11.9377 H     129  UNL129      0.0521
    774 H           8.4015   10.4534   10.8250 H     129  UNL129      0.2090
    775 O           7.2421    9.7679   14.4773 O.3   130  UNL130     -0.3982
    776 C           5.8263    9.7679   14.4773 C.3   130  UNL130      0.0330
    777 H           5.4610    8.7536   14.6565 H     130  UNL130      0.0521
    778 H           5.4611   10.1334   13.5145 H     130  UNL130      0.0521
    779 H           5.4710   10.4267   15.2732 H     130  UNL130      0.0521
    780 H           7.5278    9.1752   13.7613 H     130  UNL130      0.2090
    781 O           8.5242    9.0950   17.4924 O.3   131  UNL131     -0.3982
    782 C           7.1084    9.0950   17.4924 C.3   131  UNL131      0.0330
    783 H           6.7431    8.3260   18.1776 H     131  UNL131      0.0521
    784 H           6.7432    8.9003   16.4811 H     131  UNL131      0.0521
    785 H           6.7531   10.0736   17.8236 H     131  UNL131      0.0521
    786 H           8.8099    8.2146   17.1944 H     131  UNL131      0.2090
    787 O           6.9606   13.3053   -0.9860 O.3   132  UNL132     -0.3982
    788 C           5.5448   13.3053   -0.9860 C.3   132  UNL132      0.0330
    789 H           5.1795   14.0945   -0.3241 H     132  UNL132      0.0521
    790 H           5.1796   12.3328   -0.6471 H     132  UNL132      0.0521
    791 H           5.1895   13.4915   -2.0022 H     132  UNL132      0.0521
    792 H           7.2463   13.1377   -0.0717 H     132  UNL132      0.2090
    793 O           6.3819   14.7651    2.2886 O.3   133  UNL133     -0.3982
    794 C           4.9661   14.7651    2.2886 C.3   133  UNL133      0.0330
    795 H           4.6008   13.9961    2.9738 H     133  UNL133      0.0521
    796 H           4.6009   14.5704    1.2773 H     133  UNL133      0.0521
    797 H           4.6108   15.7437    2.6198 H     133  UNL133      0.0521
    798 H           6.6676   13.8847    1.9906 H     133  UNL133      0.2090
    799 O           8.1936   11.5174    4.5529 O.3   134  UNL134     -0.3982
    800 C           6.7778   11.5174    4.5529 C.3   134  UNL134      0.0330
    801 H           6.4125   12.5266    4.7589 H     134  UNL134      0.0521
    802 H           6.4126   10.8237    5.3141 H     134  UNL134      0.0521
    803 H           6.4225   11.1971    3.5707 H     134  UNL134      0.0521
    804 H           8.4793   11.8055    5.4366 H     134  UNL134      0.2090
    805 O           7.8055   11.3470    7.5632 O.3   135  UNL135     -0.3982
    806 C           7.2084   12.6307    7.5632 C.3   135  UNL135      0.0330
    807 H           6.3571   12.6376    8.2484 H     135  UNL135      0.0521
    808 H           6.8778   12.8797    6.5519 H     135  UNL135      0.0521
    809 H           7.9459   13.3656    7.8944 H     135  UNL135      0.0521
    810 H           7.1278   10.7166    7.2652 H     135  UNL135      0.2090
    811 O           8.1572   13.1092   11.3302 O.3   136  UNL136     -0.3982
    812 C           6.7414   13.1092   11.3302 C.3   136  UNL136      0.0330
    813 H           6.3761   12.8412   10.3357 H     136  UNL136      0.0521
    814 H           6.3762   14.1006   11.6093 H     136  UNL136      0.0521
    815 H           6.3861   12.3747   12.0567 H     136  UNL136      0.0521
    816 H           8.4429   13.7701   10.6767 H     136  UNL136      0.2090
    817 O           6.1387   12.8879   14.2489 O.3   137  UNL137     -0.3982
    818 C           4.7229   12.8879   14.2489 C.3   137  UNL137      0.0330
    819 H           4.3576   12.1189   14.9341 H     137  UNL137      0.0521
    820 H           4.3577   12.6932   13.2376 H     137  UNL137      0.0521
    821 H           4.3676   13.8665   14.5801 H     137  UNL137      0.0521
    822 H           6.4244   12.0075   13.9509 H     137  UNL137      0.2090
    823 O           7.3027   11.7942   16.7329 O.3   138  UNL138     -0.3982
    824 C           7.2280   13.2021   16.8626 C.3   138  UNL138      0.0330
    825 H           7.9825   13.6683   16.2241 H     138  UNL138      0.0521
    826 H           7.3945   13.4820   17.9056 H     138  UNL138      0.0521
    827 H           6.2349   13.5353   16.5523 H     138  UNL138      0.0521
    828 H           8.1944   11.5282   17.0152 H     138  UNL138      0.2090
    829 O           8.3068   15.6870    0.4447 O.3   139  UNL139     -0.3982
    830 C           8.1029   15.6680   -0.9562 C.3   139  UNL139      0.0330
    831 H           7.0311   15.6575   -1.1692 H     139  UNL139      0.0521
    832 H           8.5787   14.7816   -1.3825 H     139  UNL139      0.0521
    833 H           8.5501   16.5643   -1.3925 H     139  UNL139      0.0521
    834 H           7.8996   14.8802    0.8036 H     139  UNL139      0.2090
    835 O           7.8989   17.4290    2.7911 O.3   140  UNL140     -0.3982
    836 C           6.4831   17.4290    2.7911 C.3   140  UNL140      0.0330
    837 H           6.1178   16.6600    3.4763 H     140  UNL140      0.0521
    838 H           6.1179   17.2343    1.7798 H     140  UNL140      0.0521
    839 H           6.1278   18.4076    3.1223 H     140  UNL140      0.0521
    840 H           8.1846   16.5486    2.4931 H     140  UNL140      0.2090
    841 O           7.0028   14.5926    5.0495 O.3   141  UNL141     -0.3982
    842 C           5.5870   14.5926    5.0495 C.3   141  UNL141      0.0330
    843 H           5.2217   15.4217    4.4385 H     141  UNL141      0.0521
    844 H           5.2218   14.6928    6.0745 H     141  UNL141      0.0521
    845 H           5.2317   13.6489    4.6291 H     141  UNL141      0.0521
    846 H           7.2885   15.4416    5.4278 H     141  UNL141      0.2090
    847 O           8.0263   15.9578    8.0162 O.3   142  UNL142     -0.3982
    848 C           6.6105   15.9578    8.0162 C.3   142  UNL142      0.0330
    849 H           6.2452   15.1888    8.7014 H     142  UNL142      0.0521
    850 H           6.2453   15.7631    7.0049 H     142  UNL142      0.0521
    851 H           6.2552   16.9364    8.3474 H     142  UNL142      0.0521
    852 H           8.3119   15.0774    7.7182 H     142  UNL142      0.2090
    853 O           6.8298   16.2520   10.8244 O.3   143  UNL143     -0.3982
    854 C           5.4140   16.2520   10.8244 C.3   143  UNL143      0.0330
    855 H           5.0487   15.4830   11.5096 H     143  UNL143      0.0521
    856 H           5.0488   16.0573    9.8131 H     143  UNL143      0.0521
    857 H           5.0587   17.2306   11.1556 H     143  UNL143      0.0521
    858 H           7.1155   15.3716   10.5264 H     143  UNL143      0.2090
    859 O           7.4717   15.8577   14.8833 O.3   144  UNL144     -0.3982
    860 C           7.5705   15.6784   13.4824 C.3   144  UNL144      0.0330
    861 H           8.0081   14.6999   13.2694 H     144  UNL144      0.0521
    862 H           8.1932   16.4686   13.0561 H     144  UNL144      0.0521
    863 H           6.5702   15.7305   13.0461 H     144  UNL144      0.0521
    864 H           8.3740   15.8065   15.2422 H     144  UNL144      0.2090
    865 O           7.4980   15.7981   17.5911 O.3   145  UNL145     -0.3982
    866 C           6.0822   15.7981   17.5911 C.3   145  UNL145      0.0330
    867 H           5.7169   15.7093   16.5649 H     145  UNL145      0.0521
    868 H           5.7170   16.7248   18.0403 H     145  UNL145      0.0521
    869 H           5.7269   14.9471   18.1769 H     145  UNL145      0.0521
    870 H           7.7837   16.5637   17.0641 H     145  UNL145      0.2090
    871 O           8.1851   19.7363    0.5345 O.3   146  UNL146     -0.3982
    872 C           6.7693   19.7363    0.5345 C.3   146  UNL146      0.0330
    873 H           6.4040   19.9655    1.5386 H     146  UNL146      0.0521
    874 H           6.4041   18.7565    0.2171 H     146  UNL146      0.0521
    875 H           6.4140   20.4985   -0.1629 H     146  UNL146      0.0521
    876 H           8.4708   19.0505    1.1618 H     146  UNL146      0.2090
    877 O           8.5214   20.0869    3.1360 O.3   147  UNL147     -0.3982
    878 C           7.7302   19.8800    4.2916 C.3   147  UNL147      0.0330
    879 H           6.6719   19.9348    4.0244 H     147  UNL147      0.0521
    880 H           7.9683   20.6414    5.0384 H     147  UNL147      0.0521
    881 H           7.9498   18.8909    4.7002 H     147  UNL147      0.0521
    882 H           8.3049   20.9719    2.7961 H     147  UNL147      0.2090
    883 O           8.0101   18.9573    7.3290 O.3   148  UNL148     -0.3982
    884 C           6.5943   18.9573    7.3290 C.3   148  UNL148      0.0330
    885 H           6.2290   18.6628    8.3159 H     148  UNL148      0.0521
    886 H           6.2291   18.2604    6.5707 H     148  UNL148      0.0521
    887 H           6.2390   19.9640    7.0968 H     148  UNL148      0.0521
    888 H           8.2958   18.0516    7.5378 H     148  UNL148      0.2090
    889 O           7.8380   18.2553   10.5462 O.3   149  UNL149     -0.3982
    890 C           7.0468   19.4071   10.7734 C.3   149  UNL149      0.0330
    891 H           6.9351   19.9636    9.8395 H     149  UNL149      0.0521
    892 H           7.5245   20.0351   11.5293 H     149  UNL149      0.0521
    893 H           6.0619   19.0969   11.1302 H     149  UNL149      0.0521
    894 H           8.7052   18.5620   10.2307 H     149  UNL149      0.2090
    895 O           5.4341   18.2765   14.9452 O.3   150  UNL150     -0.3982
    896 C           5.6389   18.2765   13.5443 C.3   150  UNL150      0.0330
    897 H           5.0137   17.5075   13.0838 H     150  UNL150      0.0521
    898 H           6.6924   18.0818   13.3292 H     150  UNL150      0.0521
    899 H           5.3626   19.2551   13.1449 H     150  UNL150      0.0521
    900 H           5.6877   17.3961   15.2710 H     150  UNL150      0.2090
    901 O           8.2313   19.6622   17.4924 O.3   151  UNL151     -0.3982
    902 C           6.8155   19.6622   17.4924 C.3   151  UNL151      0.0330
    903 H           6.4502   18.8932   18.1776 H     151  UNL151      0.0521
    904 H           6.4503   19.4675   16.4811 H     151  UNL151      0.0521
    905 H           6.4602   20.6408   17.8236 H     151  UNL151      0.0521
    906 H           8.5170   18.7818   17.1944 H     151  UNL151      0.2090
    907 O           7.6342   23.0071    0.3258 O.3   152  UNL152     -0.3982
    908 C           6.2184   23.0071    0.3258 C.3   152  UNL152      0.0330
    909 H           5.8531   23.7963    0.9876 H     152  UNL152      0.0521
    910 H           5.8532   22.0346    0.6647 H     152  UNL152      0.0521
    911 H           5.8631   23.1933   -0.6904 H     152  UNL152      0.0521
    912 H           7.9199   22.8396    1.2401 H     152  UNL152      0.2090
    913 O           7.4577   22.7960    3.5318 O.3   153  UNL153     -0.3982
    914 C           6.0419   22.7960    3.5318 C.3   153  UNL153      0.0330
    915 H           5.6766   23.8052    3.7379 H     153  UNL153      0.0521
    916 H           5.6767   22.1023    4.2930 H     153  UNL153      0.0521
    917 H           5.6866   22.4757    2.5496 H     153  UNL153      0.0521
    918 H           7.7434   23.0841    4.4155 H     153  UNL153      0.2090
    919 O           6.1397   21.9508    6.7061 O.3   154  UNL154     -0.3982
    920 C           4.7239   21.9508    6.7061 C.3   154  UNL154      0.0330
    921 H           4.3586   22.7400    7.3679 H     154  UNL154      0.0521
    922 H           4.3587   20.9783    7.0450 H     154  UNL154      0.0521
    923 H           4.3686   22.1370    5.6899 H     154  UNL154      0.0521
    924 H           6.4254   21.7833    7.6203 H     154  UNL154      0.2090
    925 O           7.3058   22.6167   10.0964 O.3   155  UNL155     -0.3982
    926 C           5.8900   22.6167   10.0964 C.3   155  UNL155      0.0330
    927 H           5.5247   21.8477   10.7816 H     155  UNL155      0.0521
    928 H           5.5248   22.4220    9.0851 H     155  UNL155      0.0521
    929 H           5.5347   23.5953   10.4276 H     155  UNL155      0.0521
    930 H           7.5915   21.7363    9.7984 H     155  UNL155      0.2090
    931 O           7.3594   22.4968   12.4148 O.3   156  UNL156     -0.3982
    932 C           6.5682   21.6255   13.2017 C.3   156  UNL156      0.0330
    933 H           6.4565   22.0406   14.2064 H     156  UNL156      0.0521
    934 H           7.0459   20.6441   13.2524 H     156  UNL156      0.0521
    935 H           5.5833   21.5253   12.7396 H     156  UNL156      0.0521
    936 H           8.2266   22.5660   12.8494 H     156  UNL156      0.2090
    937 O           6.6866   22.3566   16.1909 O.3   157  UNL157     -0.3982
    938 C           5.2708   22.3566   16.1909 C.3   157  UNL157      0.0330
    939 H           4.9055   22.0622   17.1779 H     157  UNL157      0.0521
    940 H           4.9056   21.6598   15.4326 H     157  UNL157      0.0521
    941 H           4.9155   23.3633   15.9587 H     157  UNL157      0.0521
    942 H           6.9723   21.4509   16.3997 H     157  UNL157      0.2090
    943 O           7.4721   25.9511    1.9382 O.3   158  UNL158     -0.3982
    944 C           6.0563   25.9511    1.9382 C.3   158  UNL158      0.0330
    945 H           5.6910   25.1821    2.6234 H     158  UNL158      0.0521
    946 H           5.6911   25.7564    0.9269 H     158  UNL158      0.0521
    947 H           5.7010   26.9297    2.2694 H     158  UNL158      0.0521
    948 H           7.7578   25.0707    1.6402 H     158  UNL158      0.2090
    949 O           6.3321   26.5357    4.5056 O.3   159  UNL159     -0.3982
    950 C           4.9163   26.5357    4.5056 C.3   159  UNL159      0.0330
    951 H           4.5510   26.7649    5.5098 H     159  UNL159      0.0521
    952 H           4.5511   25.5560    4.1883 H     159  UNL159      0.0521
    953 H           4.5610   27.2979    3.8082 H     159  UNL159      0.0521
    954 H           6.6178   25.8499    5.1330 H     159  UNL159      0.2090
    955 O           4.2678   25.2088    7.0323 O.3   160  UNL160     -0.3982
    956 C           5.6244   24.8054    7.0698 C.3   160  UNL160      0.0330
    957 H           5.8122   24.2402    7.9861 H     160  UNL160      0.0521
    958 H           6.2688   25.6872    7.0344 H     160  UNL160      0.0521
    959 H           5.8305   24.1712    6.2044 H     160  UNL160      0.0521
    960 H           4.1149   25.7697    7.8117 H     160  UNL160      0.2090
    961 O           8.6541   25.0842    9.9294 O.3   161  UNL161     -0.3982
    962 C           7.6131   25.7138    9.2052 C.3   161  UNL161      0.0330
    963 H           7.5451   26.7636    9.5013 H     161  UNL161      0.0521
    964 H           6.6676   25.2050    9.4080 H     161  UNL161      0.0521
    965 H           7.8356   25.6524    8.1373 H     161  UNL161      0.0521
    966 H           8.4290   25.1546   10.8727 H     161  UNL161      0.2090
    967 O           7.5694   25.6424   13.1977 O.3   162  UNL162     -0.3982
    968 C           6.1536   25.6424   13.1977 C.3   162  UNL162      0.0330
    969 H           5.7883   24.8734   13.8829 H     162  UNL162      0.0521
    970 H           5.7884   25.4477   12.1864 H     162  UNL162      0.0521
    971 H           5.7983   26.6210   13.5289 H     162  UNL162      0.0521
    972 H           7.8551   24.7620   12.8997 H     162  UNL162      0.2090
    973 O           6.8054   24.7440   16.1017 O.3   163  UNL163     -0.3982
    974 C           7.4398   26.0097   16.1017 C.3   163  UNL163      0.0330
    975 H           8.4591   25.9074   16.4821 H     163  UNL163      0.0521
    976 H           6.8731   26.7022   16.7289 H     163  UNL163      0.0521
    977 H           7.4717   26.3911   15.0784 H     163  UNL163      0.0521
    978 H           6.7919   24.4312   17.0223 H     163  UNL163      0.2090
    979 O           6.4429   27.7833   -0.9526 O.3   164  UNL164     -0.3982
    980 C           6.6476   29.1842   -0.9526 C.3   164  UNL164      0.0330
    981 H           5.9396   29.6568   -0.2674 H     164  UNL164      0.0521
    982 H           6.5078   29.5737   -1.9639 H     164  UNL164      0.0521
    983 H           7.6673   29.3942   -0.6214 H     164  UNL164      0.0521
    984 H           5.5304   27.6279   -1.2506 H     164  UNL164      0.2090
    985 O           8.5945   28.9756    2.1494 O.3   165  UNL165     -0.3982
    986 C           7.1787   28.9756    2.1494 C.3   165  UNL165      0.0330
    987 H           6.8134   28.2066    2.8346 H     165  UNL165      0.0521
    988 H           6.8135   28.7809    1.1381 H     165  UNL165      0.0521
    989 H           6.8234   29.9542    2.4806 H     165  UNL165      0.0521
    990 H           8.8802   28.0952    1.8514 H     165  UNL165      0.2090
    991 O           7.2332   29.4892    4.8699 O.3   166  UNL166     -0.3982
    992 C           5.8174   29.4892    4.8699 C.3   166  UNL166      0.0330
    993 H           5.4521   28.7202    5.5551 H     166  UNL166      0.0521
    994 H           5.4522   29.2945    3.8586 H     166  UNL166      0.0521
    995 H           5.4621   30.4678    5.2011 H     166  UNL166      0.0521
    996 H           7.5189   28.6088    4.5719 H     166  UNL166      0.2090
    997 O           6.7102   28.6858    7.8327 O.3   167  UNL167     -0.3982
    998 C           5.2944   28.6858    7.8327 C.3   167  UNL167      0.0330
    999 H           4.9291   29.5150    7.2217 H     167  UNL167      0.0521
   1000 H           4.9292   28.7860    8.8577 H     167  UNL167      0.0521
   1001 H           4.9391   27.7421    7.4123 H     167  UNL167      0.0521
   1002 H           6.9959   29.5348    8.2109 H     167  UNL167      0.2090
   1003 O           6.0817   27.4382   10.9412 O.3   168  UNL168     -0.3982
   1004 C           7.1563   28.3600   10.9412 C.3   168  UNL168      0.0330
   1005 H           6.9329   29.1815   11.6264 H     168  UNL168      0.0521
   1006 H           7.3067   28.7456    9.9299 H     168  UNL168      0.0521
   1007 H           8.0631   27.8486   11.2724 H     168  UNL168      0.0521
   1008 H           5.2916   27.9205   10.6432 H     168  UNL168      0.2090
   1009 O           4.9569   28.8537   14.8558 O.3   169  UNL169     -0.3982
   1010 C           5.1616   28.8537   13.4549 C.3   169  UNL169      0.0330
   1011 H           4.5364   28.0847   12.9944 H     169  UNL169      0.0521
   1012 H           6.2151   28.6590   13.2398 H     169  UNL169      0.0521
   1013 H           4.8853   29.8323   13.0555 H     169  UNL169      0.0521
   1014 H           5.2104   27.9733   15.1816 H     169  UNL169      0.2090
   1015 O           8.1872   28.7771   17.4924 O.3   170  UNL170     -0.3982
   1016 C           6.7714   28.7771   17.4924 C.3   170  UNL170      0.0330
   1017 H           6.4061   28.0081   18.1776 H     170  UNL170      0.0521
   1018 H           6.4062   28.5824   16.4811 H     170  UNL170      0.0521
   1019 H           6.4161   29.7557   17.8236 H     170  UNL170      0.0521
   1020 H           8.4729   27.8967   17.1944 H     170  UNL170      0.2090
   1021 O           8.0142   33.0248    0.3621 O.3   171  UNL171     -0.3982
   1022 C           7.8457   31.6239    0.4783 C.3   171  UNL171      0.0330
   1023 H           8.3124   31.2753    1.4030 H     171  UNL171      0.0521
   1024 H           8.3021   31.1285   -0.3820 H     171  UNL171      0.0521
   1025 H           6.7776   31.3954    0.5032 H     171  UNL171      0.0521
   1026 H           8.9711   33.1968    0.3425 H     171  UNL171      0.2090
   1027 O           8.8876   32.5744    3.2524 O.3   172  UNL172     -0.3982
   1028 C           7.4718   32.5744    3.2524 C.3   172  UNL172      0.0330
   1029 H           7.1065   33.0339    4.1742 H     172  UNL172      0.0521
   1030 H           7.1066   31.5474    3.1751 H     172  UNL172      0.0521
   1031 H           7.1165   33.1506    2.3949 H     172  UNL172      0.0521
   1032 H           9.1733   32.0559    4.0239 H     172  UNL172      0.2090
   1033 O           8.0649   32.0427    7.1042 O.3   173  UNL173     -0.3982
   1034 C           6.6491   32.0427    7.1042 C.3   173  UNL173      0.0330
   1035 H           6.2838   31.9540    6.0780 H     173  UNL173      0.0521
   1036 H           6.2839   32.9695    7.5534 H     173  UNL173      0.0521
   1037 H           6.2938   31.1917    7.6900 H     173  UNL173      0.0521
   1038 H           8.3506   32.8083    6.5772 H     173  UNL173      0.2090
   1039 O           8.5055   31.7291   10.8245 O.3   174  UNL174     -0.3982
   1040 C           7.0897   31.7291   10.8245 C.3   174  UNL174      0.0330
   1041 H           6.7244   31.6404    9.7984 H     174  UNL174      0.0521
   1042 H           6.7245   32.6559   11.2738 H     174  UNL174      0.0521
   1043 H           6.7344   30.8782   11.4103 H     174  UNL174      0.0521
   1044 H           8.7912   32.4948   10.2975 H     174  UNL174      0.2090
   1045 O           7.6270   32.1824   13.6986 O.3   175  UNL175     -0.3982
   1046 C           6.2112   32.1824   13.6986 C.3   175  UNL175      0.0330
   1047 H           5.8459   32.0663   14.7220 H     175  UNL175      0.0521
   1048 H           5.8460   31.3629   13.0748 H     175  UNL175      0.0521
   1049 H           5.8559   33.1325   13.2928 H     175  UNL175      0.0521
   1050 H           7.9127   31.3276   14.0636 H     175  UNL175      0.2090
   1051 O           3.7182   31.9059   17.3351 O.3   176  UNL176     -0.3982
   1052 C           5.1279   31.9059   17.2040 C.3   176  UNL176      0.0330
   1053 H           5.4282   31.1369   16.4879 H     176  UNL176      0.0521
   1054 H           5.5852   31.7112   18.1771 H     176  UNL176      0.0521
   1055 H           5.4510   32.8845   16.8413 H     176  UNL176      0.0521
   1056 H           3.4613   31.0255   17.6583 H     176  UNL176      0.2090
   1057 O           7.4272   35.1938    2.0208 O.3   177  UNL177     -0.3982
   1058 C           6.0114   35.1938    2.0208 C.3   177  UNL177      0.0330
   1059 H           5.6461   36.0229    1.4097 H     177  UNL177      0.0521
   1060 H           5.6462   35.2940    3.0457 H     177  UNL177      0.0521
   1061 H           5.6561   34.2501    1.6004 H     177  UNL177      0.0521
   1062 H           7.7129   36.0428    2.3990 H     177  UNL177      0.2090
   1063 O           8.4639   35.0636    5.3581 O.3   178  UNL178     -0.3982
   1064 C           7.0481   35.0636    5.3581 C.3   178  UNL178      0.0330
   1065 H           6.6828   34.2946    6.0433 H     178  UNL178      0.0521
   1066 H           6.6829   34.8689    4.3468 H     178  UNL178      0.0521
   1067 H           6.6928   36.0422    5.6893 H     178  UNL178      0.0521
   1068 H           8.7496   34.1832    5.0601 H     178  UNL178      0.2090
   1069 O           6.7228   35.1934    8.0814 O.3   179  UNL179     -0.3982
   1070 C           5.3070   35.1934    8.0814 C.3   179  UNL179      0.0330
   1071 H           4.9417   36.0225    7.4704 H     179  UNL179      0.0521
   1072 H           4.9418   35.2936    9.1064 H     179  UNL179      0.0521
   1073 H           4.9517   34.2496    7.6610 H     179  UNL179      0.0521
   1074 H           7.0085   36.0424    8.4597 H     179  UNL179      0.2090
   1075 O           6.0978   36.0423   11.0720 O.3   180  UNL180     -0.3982
   1076 C           6.8358   34.8559   10.8433 C.3   180  UNL180      0.0330
   1077 H           6.1767   34.0902   10.4269 H     180  UNL180      0.0521
   1078 H           7.2678   34.5074   11.7846 H     180  UNL180      0.0521
   1079 H           7.6385   35.0681   10.1332 H     180  UNL180      0.0521
   1080 H           5.3934   35.8229   11.7055 H     180  UNL180      0.2090
   1081 O           7.4947   34.4184   14.7084 O.3   181  UNL181     -0.3982
   1082 C           8.1156   35.3753   13.8698 C.3   181  UNL181      0.0330
   1083 H           8.7305   34.8640   13.1249 H     181  UNL181      0.0521
   1084 H           8.7354   36.0426   14.4735 H     181  UNL181      0.0521
   1085 H           7.3430   35.9583   13.3631 H     181  UNL181      0.0521
   1086 H           8.2047   33.9168   15.1441 H     181  UNL181      0.2090
   1087 O           7.3069   34.0992   17.5934 O.3   182  UNL182     -0.3982
   1088 C           6.9715   35.4357   17.2682 C.3   182  UNL182      0.0330
   1089 H           7.7016   35.8333   16.5588 H     182  UNL182      0.0521
   1090 H           6.9636   36.0418   18.1774 H     182  UNL182      0.0521
   1091 H           5.9784   35.4522   16.8133 H     182  UNL182      0.0521
   1092 H           8.1924   34.1164   17.9950 H     182  UNL182      0.2090
   1093 O          11.8600    0.2478    0.2200 O.3   183  UNL183     -0.3982
   1094 C          10.4442    0.2478    0.2200 C.3   183  UNL183      0.0330
   1095 H          10.0789   -0.5212    0.9052 H     183  UNL183      0.0521
   1096 H          10.0790    0.0531   -0.7913 H     183  UNL183      0.0521
   1097 H          10.0889    1.2264    0.5512 H     183  UNL183      0.0521
   1098 H          12.1457   -0.6326   -0.0780 H     183  UNL183      0.2090
   1099 O           9.2422    1.1412    2.6141 O.3   184  UNL184     -0.3982
   1100 C           7.8264    1.1412    2.6141 C.3   184  UNL184      0.0330
   1101 H           7.4611    0.3722    3.2993 H     184  UNL184      0.0521
   1102 H           7.4612    0.9465    1.6028 H     184  UNL184      0.0521
   1103 H           7.4711    2.1198    2.9453 H     184  UNL184      0.0521
   1104 H           9.5279    0.2608    2.3161 H     184  UNL184      0.2090
   1105 O          11.8765   -0.4952    6.5515 O.3   185  UNL185     -0.3982
   1106 C          10.4607   -0.4952    6.5515 C.3   185  UNL185      0.0330
   1107 H          10.0954   -1.2642    7.2367 H     185  UNL185      0.0521
   1108 H          10.0955   -0.6899    5.5402 H     185  UNL185      0.0521
   1109 H          10.1054    0.4834    6.8827 H     185  UNL185      0.0521
   1110 H          12.1622   -1.3756    6.2535 H     185  UNL185      0.2090
   1111 O          11.0283    0.1191    9.2034 O.3   186  UNL186     -0.3982
   1112 C           9.6125    0.1191    9.2034 C.3   186  UNL186      0.0330
   1113 H           9.2472    0.9482    8.5924 H     186  UNL186      0.0521
   1114 H           9.2473    0.2193   10.2284 H     186  UNL186      0.0521
   1115 H           9.2572   -0.8247    8.7830 H     186  UNL186      0.0521
   1116 H          11.3140    0.9681    9.5817 H     186  UNL186      0.2090
   1117 O          11.7233    0.6377   11.5005 O.3   187  UNL187     -0.3982
   1118 C          12.4034   -0.5971   11.3694 C.3   187  UNL187      0.0330
   1119 H          11.8747   -1.2311   10.6533 H     187  UNL187      0.0521
   1120 H          12.4535   -1.0916   12.3425 H     187  UNL187      0.0521
   1121 H          13.4165   -0.4080   11.0067 H     187  UNL187      0.0521
   1122 H          10.8282    0.4379   11.8237 H     187  UNL187      0.2090
   1123 O           8.3536   -0.0193   14.5961 O.3   188  UNL188     -0.3982
   1124 C           8.5583   -0.0193   13.1951 C.3   188  UNL188      0.0330
   1125 H           7.9331   -0.7883   12.7346 H     188  UNL188      0.0521
   1126 H           9.6118   -0.2140   12.9800 H     188  UNL188      0.0521
   1127 H           8.2820    0.9593   12.7957 H     188  UNL188      0.0521
   1128 H           8.6071   -0.8997   14.9219 H     188  UNL188      0.2090
   1129 O           8.4892    1.1743   17.2568 O.3   189  UNL189     -0.3982
   1130 C           9.3365    0.0400   17.2568 C.3   189  UNL189      0.0330
   1131 H           8.7883   -0.8255   17.6373 H     189  UNL189      0.0521
   1132 H          10.2095    0.2363   17.8840 H     189  UNL189      0.0521
   1133 H           9.6632   -0.1594   16.2336 H     189  UNL189      0.0521
   1134 H           8.2156    1.3265   18.1774 H     189  UNL189      0.2090
   1135 O          11.6841    3.5321    1.4520 O.3   190  UNL190     -0.3982
   1136 C          10.2683    3.5321    1.4520 C.3   190  UNL190      0.0330
   1137 H           9.9030    2.9653    0.5920 H     190  UNL190      0.0521
   1138 H           9.9031    4.5609    1.4056 H     190  UNL190      0.0521
   1139 H           9.9130    3.0628    2.3724 H     190  UNL190      0.0521
   1140 H          11.9698    3.9543    0.6239 H     190  UNL190      0.2090
   1141 O          11.1257    3.2593    4.9906 O.3   191  UNL191     -0.3982
   1142 C           9.7099    3.2593    4.9906 C.3   191  UNL191      0.0330
   1143 H           9.3446    4.0884    4.3796 H     191  UNL191      0.0521
   1144 H           9.3447    3.3595    6.0156 H     191  UNL191      0.0521
   1145 H           9.3546    2.3156    4.5702 H     191  UNL191      0.0521
   1146 H          11.4114    4.1083    5.3689 H     191  UNL191      0.2090
   1147 O          11.6846    3.3578    8.1838 O.3   192  UNL192     -0.3982
   1148 C          10.2688    3.3578    8.1838 C.3   192  UNL192      0.0330
   1149 H           9.9035    4.1870    7.5727 H     192  UNL192      0.0521
   1150 H           9.9036    3.4580    9.2088 H     192  UNL192      0.0521
   1151 H           9.9135    2.4141    7.7634 H     192  UNL192      0.0521
   1152 H          11.9703    4.2068    8.5620 H     192  UNL192      0.2090
   1153 O          12.1985    3.2589   12.4409 O.3   193  UNL193     -0.3982
   1154 C          11.4073    3.5719   11.3094 C.3   193  UNL193      0.0330
   1155 H          10.3490    3.4926   11.5704 H     193  UNL193      0.0521
   1156 H          11.6454    2.8830   10.4954 H     193  UNL193      0.0521
   1157 H          11.6269    4.5947   10.9942 H     193  UNL193      0.0521
   1158 H          11.9820    2.3463   12.6974 H     193  UNL193      0.2090
   1159 O          11.0429    3.3510   14.6526 O.3   194  UNL194     -0.3982
   1160 C           9.6271    3.3510   14.6526 C.3   194  UNL194      0.0330
   1161 H           9.2618    2.5820   15.3378 H     194  UNL194      0.0521
   1162 H           9.2619    3.1563   13.6413 H     194  UNL194      0.0521
   1163 H           9.2718    4.3296   14.9838 H     194  UNL194      0.0521
   1164 H          11.3286    2.4706   14.3546 H     194  UNL194      0.2090
   1165 O           9.5199    4.2976   17.4924 O.3   195  UNL195     -0.3982
   1166 C           8.1041    4.2976   17.4924 C.3   195  UNL195      0.0330
   1167 H           7.7388    3.5286   18.1776 H     195  UNL195      0.0521
   1168 H           7.7389    4.1029   16.4811 H     195  UNL195      0.0521
   1169 H           7.7488    5.2762   17.8236 H     195  UNL195      0.0521
   1170 H           9.8056    3.4172   17.1944 H     195  UNL195      0.2090
   1171 O          10.8711    6.2254   -0.3912 O.3   196  UNL196     -0.3982
   1172 C           9.4553    6.2254   -0.3912 C.3   196  UNL196      0.0330
   1173 H           9.0900    7.2155   -0.1075 H     196  UNL196      0.0521
   1174 H           9.0901    5.4747    0.3138 H     196  UNL196      0.0521
   1175 H           9.1000    5.9823   -1.3954 H     196  UNL196      0.0521
   1176 H          11.1568    6.4441    0.5121 H     196  UNL196      0.2090
   1177 O          10.7664    5.6255    3.6677 O.3   197  UNL197     -0.3982
   1178 C          10.4636    6.7254    2.8293 C.3   197  UNL197      0.0330
   1179 H          10.0068    6.3648    1.9043 H     197  UNL197      0.0521
   1180 H          11.3800    7.2767    2.6050 H     197  UNL197      0.0521
   1181 H           9.7622    7.3841    3.3468 H     197  UNL197      0.0521
   1182 H          11.3902    5.0593    3.1821 H     197  UNL197      0.2090
   1183 O           9.6584    6.3639    6.0807 O.3   198  UNL198     -0.3982
   1184 C           8.2426    6.3639    6.0807 C.3   198  UNL198      0.0330
   1185 H           7.8773    5.5949    6.7659 H     198  UNL198      0.0521
   1186 H           7.8774    6.1692    5.0694 H     198  UNL198      0.0521
   1187 H           7.8873    7.3425    6.4119 H     198  UNL198      0.0521
   1188 H           9.9441    5.4835    5.7827 H     198  UNL198      0.2090
   1189 O           9.5353    5.6366   11.7174 O.3   199  UNL199     -0.3982
   1190 C           9.3314    7.0375   11.6984 C.3   199  UNL199      0.0330
   1191 H           8.5626    7.2848   10.9622 H     199  UNL199      0.0521
   1192 H          10.2684    7.5395   11.4452 H     199  UNL199      0.0521
   1193 H           9.0027    7.3621   12.6884 H     199  UNL199      0.0521
   1194 H           9.8262    5.3781   10.8262 H     199  UNL199      0.2090
   1195 O          12.0218    6.2907   15.0953 O.3   200  UNL200     -0.3982
   1196 C          11.2305    6.6037   13.9638 C.3   200  UNL200      0.0330
   1197 H          10.1722    6.5244   14.2248 H     200  UNL200      0.0521
   1198 H          11.4686    5.9148   13.1497 H     200  UNL200      0.0521
   1199 H          11.4501    7.6265   13.6485 H     200  UNL200      0.0521
   1200 H          11.8052    5.3781   15.3518 H     200  UNL200      0.2090
   1201 O          11.5386    7.7074   18.1235 O.3   201  UNL201     -0.3982
   1202 C          10.7473    6.7700   17.4166 C.3   201  UNL201      0.0330
   1203 H          10.5375    7.1513   16.4142 H     201  UNL201      0.0521
   1204 H           9.8126    6.6003   17.9566 H     201  UNL201      0.0521
   1205 H          11.2965    5.8288   17.3385 H     201  UNL201      0.0521
   1206 H          11.0256    8.5317   18.1769 H     201  UNL201      0.2090
   1207 O          11.0469   10.2518   -1.0590 O.3   202  UNL202     -0.3982
   1208 C          10.3638    9.0117   -1.0590 C.3   202  UNL202      0.0330
   1209 H          10.8612    8.3207   -0.3738 H     202  UNL202      0.0521
   1210 H          10.3582    8.5979   -2.0703 H     202  UNL202      0.0521
   1211 H           9.3352    9.1726   -0.7278 H     202  UNL202      0.0521
   1212 H          11.9559   10.0773   -1.3570 H     202  UNL202      0.2090
   1213 O          10.4069    9.2023    1.5319 O.3   203  UNL203     -0.3982
   1214 C           8.9911    9.2023    1.5319 C.3   203  UNL203      0.0330
   1215 H           8.6258    9.9046    0.7784 H     203  UNL203      0.0521
   1216 H           8.6259    9.4898    2.5208 H     203  UNL203      0.0521
   1217 H           8.6358    8.1972    1.2927 H     203  UNL203      0.0521
   1218 H          10.6926   10.1065    1.7470 H     203  UNL203      0.2090
   1219 O          11.0918    9.2035    4.8623 O.3   204  UNL204     -0.3982
   1220 C           9.6760    9.2035    4.8623 C.3   204  UNL204      0.0330
   1221 H           9.3106    9.6630    5.7841 H     204  UNL204      0.0521
   1222 H           9.3108    8.1765    4.7850 H     204  UNL204      0.0521
   1223 H           9.3207    9.7797    4.0048 H     204  UNL204      0.0521
   1224 H          11.3774    8.6850    5.6337 H     204  UNL204      0.2090
   1225 O           9.8664    6.5820    8.6367 O.3   205  UNL205     -0.3982
   1226 C          11.2761    6.5820    8.5056 C.3   205  UNL205      0.0330
   1227 H          11.5764    5.8130    7.7895 H     205  UNL205      0.0521
   1228 H          11.7334    6.3873    9.4788 H     205  UNL205      0.0521
   1229 H          11.5992    7.5606    8.1430 H     205  UNL205      0.0521
   1230 H           9.6095    5.7016    8.9599 H     205  UNL205      0.2090
   1231 O          10.4436    9.8056   11.1019 O.3   206  UNL206     -0.3982
   1232 C          11.8533    9.9367   11.1019 C.3   206  UNL206      0.0330
   1233 H          12.2088   10.0589   10.0757 H     206  UNL206      0.0521
   1234 H          12.3028    9.0478   11.5511 H     206  UNL206      0.0521
   1235 H          12.1283   10.8170   11.6876 H     206  UNL206      0.0521
   1236 H          10.2300    9.0168   10.5749 H     206  UNL206      0.2090
   1237 O          11.3652    9.7635   13.9452 O.3   207  UNL207     -0.3982
   1238 C           9.9494    9.7635   13.9452 C.3   207  UNL207      0.0330
   1239 H           9.5841   10.2230   14.8669 H     207  UNL207      0.0521
   1240 H           9.5842    8.7365   13.8678 H     207  UNL207      0.0521
   1241 H           9.5941   10.3397   13.0877 H     207  UNL207      0.0521
   1242 H          11.6509    9.2450   14.7166 H     207  UNL207      0.2090
   1243 O          11.9985   10.8562   17.4924 O.3   208  UNL208     -0.3982
   1244 C          10.5827   10.8562   17.4924 C.3   208  UNL208      0.0330
   1245 H          10.2174   10.0872   18.1776 H     208  UNL208      0.0521
   1246 H          10.2175   10.6615   16.4811 H     208  UNL208      0.0521
   1247 H          10.2274   11.8348   17.8236 H     208  UNL208      0.0521
   1248 H          12.2842    9.9758   17.1944 H     208  UNL208      0.2090
   1249 O           8.9278   12.2526    0.6252 O.3   209  UNL209     -0.3982
   1250 C           8.8982   12.4552    2.0261 C.3   209  UNL209      0.0330
   1251 H           9.5534   13.2895    2.2884 H     209  UNL209      0.0521
   1252 H           9.2279   11.5455    2.5337 H     209  UNL209      0.0521
   1253 H           7.8751   12.6888    2.3297 H     209  UNL209      0.0521
   1254 H           9.8476   12.0473    0.3856 H     209  UNL209      0.2090
   1255 O          12.2425   11.8263    5.3416 O.3   210  UNL210     -0.3982
   1256 C          10.8267   11.8263    5.3416 C.3   210  UNL210      0.0330
   1257 H          10.4614   12.8355    5.5476 H     210  UNL210      0.0521
   1258 H          10.4615   11.1326    6.1028 H     210  UNL210      0.0521
   1259 H          10.4714   11.5060    4.3593 H     210  UNL210      0.0521
   1260 H          12.5282   12.1145    6.2252 H     210  UNL210      0.2090
   1261 O          10.6721   11.2767    8.6927 O.3   211  UNL211     -0.3982
   1262 C          11.5194   12.4110    8.6927 C.3   211  UNL211      0.0330
   1263 H          11.1220   13.1639    9.3779 H     211  UNL211      0.0521
   1264 H          11.5820   12.8201    7.6814 H     211  UNL211      0.0521
   1265 H          12.5161   12.1100    9.0239 H     211  UNL211      0.0521
   1266 H           9.7958   11.5747    8.3947 H     211  UNL211      0.2090
   1267 O          12.1632   13.1656   11.8414 O.3   212  UNL212     -0.3982
   1268 C          10.7474   13.1656   11.8414 C.3   212  UNL212      0.0330
   1269 H          10.3821   12.1514   12.0206 H     212  UNL212      0.0521
   1270 H          10.3822   13.5311   10.8786 H     212  UNL212      0.0521
   1271 H          10.3921   13.8244   12.6372 H     212  UNL212      0.0521
   1272 H          12.4489   12.5730   11.1254 H     212  UNL212      0.2090
   1273 O          10.8763   12.8018   14.4949 O.3   213  UNL213     -0.3982
   1274 C           9.4605   12.8018   14.4949 C.3   213  UNL213      0.0330
   1275 H           9.0952   12.0328   15.1801 H     213  UNL213      0.0521
   1276 H           9.0953   12.6071   13.4836 H     213  UNL213      0.0521
   1277 H           9.1052   13.7804   14.8261 H     213  UNL213      0.0521
   1278 H          11.1620   11.9214   14.1969 H     213  UNL213      0.2090
   1279 O          11.6470   14.1626   17.1224 O.3   214  UNL214     -0.3982
   1280 C          10.2312   14.1626   17.1224 C.3   214  UNL214      0.0330
   1281 H           9.8658   14.3918   18.1266 H     214  UNL214      0.0521
   1282 H           9.8659   13.1828   16.8051 H     214  UNL214      0.0521
   1283 H           9.8758   14.9248   16.4251 H     214  UNL214      0.0521
   1284 H          11.9327   13.4768   17.7498 H     214  UNL214      0.2090
   1285 O          12.2695   15.3043    0.5587 O.3   215  UNL215     -0.3982
   1286 C          10.8537   15.3043    0.5587 C.3   215  UNL215      0.0330
   1287 H          10.4884   15.2156   -0.4674 H     215  UNL215      0.0521
   1288 H          10.4885   16.2311    1.0080 H     215  UNL215      0.0521
   1289 H          10.4984   14.4533    1.1445 H     215  UNL215      0.0521
   1290 H          12.5552   16.0700    0.0317 H     215  UNL215      0.2090
   1291 O          11.3020   15.0052    4.3429 O.3   216  UNL216     -0.3982
   1292 C           9.8862   15.0052    4.3429 C.3   216  UNL216      0.0330
   1293 H           9.5209   15.2344    5.3471 H     216  UNL216      0.0521
   1294 H           9.5210   14.0255    4.0256 H     216  UNL216      0.0521
   1295 H           9.5309   15.7675    3.6456 H     216  UNL216      0.0521
   1296 H          11.5877   14.3195    4.9703 H     216  UNL216      0.2090
   1297 O          11.9805   14.9494    7.6222 O.3   217  UNL217     -0.3982
   1298 C          10.5647   14.9494    7.6222 C.3   217  UNL217      0.0330
   1299 H          10.1994   15.7785    7.0111 H     217  UNL217      0.0521
   1300 H          10.1995   15.0496    8.6472 H     217  UNL217      0.0521
   1301 H          10.2094   14.0057    7.2018 H     217  UNL217      0.0521
   1302 H          12.2662   15.7984    8.0004 H     217  UNL217      0.2090
   1303 O          11.0502   16.0090   11.0199 O.3   218  UNL218     -0.3982
   1304 C           9.6344   16.0090   11.0199 C.3   218  UNL218      0.0330
   1305 H           9.2691   15.2400   11.7051 H     218  UNL218      0.0521
   1306 H           9.2692   15.8143   10.0086 H     218  UNL218      0.0521
   1307 H           9.2791   16.9876   11.3511 H     218  UNL218      0.0521
   1308 H          11.3359   15.1286   10.7219 H     218  UNL218      0.2090
   1309 O          11.1260   16.8007   15.0360 O.3   219  UNL219     -0.3982
   1310 C          11.0184   15.9566   13.9045 C.3   219  UNL219      0.0330
   1311 H          11.9142   15.3356   13.8254 H     219  UNL219      0.0521
   1312 H          10.9035   16.5653   13.0043 H     219  UNL219      0.0521
   1313 H          10.1421   15.3148   14.0220 H     219  UNL219      0.0521
   1314 H          11.9118   17.3578   14.9032 H     219  UNL219      0.2090
   1315 O          11.5662   17.0996   17.5911 O.3   220  UNL220     -0.3982
   1316 C          10.1504   17.0996   17.5911 C.3   220  UNL220      0.0330
   1317 H           9.7851   17.0109   16.5649 H     220  UNL220      0.0521
   1318 H           9.7852   18.0264   18.0403 H     220  UNL220      0.0521
   1319 H           9.7951   16.2486   18.1769 H     220  UNL220      0.0521
   1320 H          11.8519   17.8653   17.0641 H     220  UNL220      0.2090
   1321 O          12.0412   18.1871    2.2767 O.3   221  UNL221     -0.3982
   1322 C          10.6254   18.1871    2.2767 C.3   221  UNL221      0.0330
   1323 H          10.2601   17.1722    2.4524 H     221  UNL221      0.0521
   1324 H          10.2602   18.5559    1.3151 H     221  UNL221      0.0521
   1325 H          10.2701   18.8432    3.0748 H     221  UNL221      0.0521
   1326 H          12.3269   17.5969    1.5586 H     221  UNL221      0.2090
   1327 O          11.8099   17.9610    6.3710 O.3   222  UNL222     -0.3982
   1328 C          11.0187   18.2740    5.2394 C.3   222  UNL222      0.0330
   1329 H           9.9604   18.1947    5.5004 H     222  UNL222      0.0521
   1330 H          11.2568   17.5850    4.4254 H     222  UNL222      0.0521
   1331 H          11.2383   19.2967    4.9242 H     222  UNL222      0.0521
   1332 H          11.5934   17.0484    6.6274 H     222  UNL222      0.2090
   1333 O          11.9794   18.3494    8.9355 O.3   223  UNL223     -0.3982
   1334 C          10.5636   18.3494    8.9355 C.3   223  UNL223      0.0330
   1335 H          10.1983   17.5804    9.6207 H     223  UNL223      0.0521
   1336 H          10.1984   18.1547    7.9242 H     223  UNL223      0.0521
   1337 H          10.2083   19.3280    9.2667 H     223  UNL223      0.0521
   1338 H          12.2651   17.4690    8.6375 H     223  UNL223      0.2090
   1339 O          12.1735   19.1365   13.0538 O.3   224  UNL224     -0.3982
   1340 C          11.3822   19.4495   11.9222 C.3   224  UNL224      0.0330
   1341 H          10.3240   19.3702   12.1832 H     224  UNL224      0.0521
   1342 H          11.6203   18.7606   11.1082 H     224  UNL224      0.0521
   1343 H          11.6019   20.4723   11.6070 H     224  UNL224      0.0521
   1344 H          11.9570   18.2239   13.3102 H     224  UNL224      0.2090
   1345 O           9.9881   19.5895   14.5282 O.3   225  UNL225     -0.3982
   1346 C           8.5723   19.5895   14.5282 C.3   225  UNL225      0.0330
   1347 H           8.2070   18.8205   15.2134 H     225  UNL225      0.0521
   1348 H           8.2071   19.3948   13.5169 H     225  UNL225      0.0521
   1349 H           8.2170   20.5681   14.8594 H     225  UNL225      0.0521
   1350 H          10.2738   18.7091   14.2302 H     225  UNL225      0.2090
   1351 O          12.2112   20.6009   17.4924 O.3   226  UNL226     -0.3982
   1352 C          10.7954   20.6009   17.4924 C.3   226  UNL226      0.0330
   1353 H          10.4301   19.8319   18.1776 H     226  UNL226      0.0521
   1354 H          10.4302   20.4062   16.4811 H     226  UNL226      0.0521
   1355 H          10.4401   21.5795   17.8236 H     226  UNL226      0.0521
   1356 H          12.4969   19.7205   17.1944 H     226  UNL226      0.2090
   1357 O          11.6425   21.7689    1.4013 O.3   227  UNL227     -0.3982
   1358 C          10.2267   21.7689    1.4013 C.3   227  UNL227      0.0330
   1359 H           9.8614   22.3096    0.5246 H     227  UNL227      0.0521
   1360 H           9.8615   22.2449    2.3145 H     227  UNL227      0.0521
   1361 H           9.8714   20.7364    1.3640 H     227  UNL227      0.0521
   1362 H          11.9282   22.6977    1.4348 H     227  UNL227      0.2090
   1363 O          10.2863   21.6327    4.3251 O.3   228  UNL228     -0.3982
   1364 C          11.6961   21.7547    4.3732 C.3   228  UNL228      0.0330
   1365 H          12.1537   20.9127    3.8480 H     228  UNL228      0.0521
   1366 H          12.0258   21.7708    5.4149 H     228  UNL228      0.0521
   1367 H          11.9888   22.6877    3.8862 H     228  UNL228      0.0521
   1368 H          10.0568   20.7962    4.7645 H     228  UNL228      0.2090
   1369 O           9.9902   21.0391    7.4483 O.3   229  UNL229     -0.3982
   1370 C          11.3999   21.0391    7.5794 C.3   229  UNL229      0.0330
   1371 H          11.8271   20.2701    6.9310 H     229  UNL229      0.0521
   1372 H          11.6699   20.8444    8.6201 H     229  UNL229      0.0521
   1373 H          11.7844   22.0177    7.2825 H     229  UNL229      0.0521
   1374 H           9.6782   20.1587    7.7185 H     229  UNL229      0.2090
   1375 O          10.0307   23.1242    9.9466 O.3   230  UNL230     -0.3982
   1376 C          10.2431   22.0170   10.8030 C.3   230  UNL230      0.0330
   1377 H          10.5881   21.1621   10.2162 H     230  UNL230      0.0521
   1378 H           9.3110   21.7680   11.3160 H     230  UNL230      0.0521
   1379 H          11.0039   22.2800   11.5417 H     230  UNL230      0.0521
   1380 H           9.3513   22.8611    9.3026 H     230  UNL230      0.2090
   1381 O          11.0942   23.5413   15.2024 O.3   231  UNL231     -0.3982
   1382 C          10.9866   22.6972   14.0708 C.3   231  UNL231      0.0330
   1383 H          11.8824   22.0762   13.9918 H     231  UNL231      0.0521
   1384 H          10.8717   23.3059   13.1707 H     231  UNL231      0.0521
   1385 H          10.1103   22.0554   14.1883 H     231  UNL231      0.0521
   1386 H          11.8800   24.0984   15.0695 H     231  UNL231      0.2090
   1387 O           8.8448   23.2424   16.2729 O.3   232  UNL232     -0.3982
   1388 C           9.0496   23.3722   17.6678 C.3   232  UNL232      0.0330
   1389 H          10.1178   23.4803   17.8717 H     232  UNL232      0.0521
   1390 H           8.6579   22.4889   18.1781 H     232  UNL232      0.0521
   1391 H           8.5213   24.2599   18.0233 H     232  UNL232      0.0521
   1392 H           9.3250   22.4469   15.9864 H     232  UNL232      0.2090
   1393 O           8.7005   25.5131   -0.0907 O.3   233  UNL233     -0.3982
   1394 C          10.1102   25.6442   -0.0907 C.3   233  UNL233      0.0330
   1395 H          10.4027   26.4437    0.5945 H     233  UNL233      0.0521
   1396 H          10.4558   25.8719   -1.1020 H     233  UNL233      0.0521
   1397 H          10.5546   24.7027    0.2405 H     233  UNL233      0.0521
   1398 H           8.3345   26.3632   -0.3887 H     233  UNL233      0.2090
   1399 O          11.4709   24.5550    2.7937 O.3   234  UNL234     -0.3982
   1400 C          10.0551   24.5550    2.7937 C.3   234  UNL234      0.0330
   1401 H           9.6898   25.5451    3.0775 H     234  UNL234      0.0521
   1402 H           9.6899   23.8043    3.4988 H     234  UNL234      0.0521
   1403 H           9.6998   24.3119    1.7896 H     234  UNL234      0.0521
   1404 H          11.7566   24.7736    3.6971 H     234  UNL234      0.2090
   1405 O          10.4202   26.1677    5.1044 O.3   235  UNL235     -0.3982
   1406 C           9.0044   26.1677    5.1044 C.3   235  UNL235      0.0330
   1407 H           8.6391   26.3968    6.1086 H     235  UNL235      0.0521
   1408 H           8.6392   25.1879    4.7870 H     235  UNL235      0.0521
   1409 H           8.6491   26.9299    4.4070 H     235  UNL235      0.0521
   1410 H          10.7059   25.4819    5.7318 H     235  UNL235      0.2090
   1411 O           9.8363   23.3658    6.9757 O.3   236  UNL236     -0.3982
   1412 C           8.4205   23.3658    6.9757 C.3   236  UNL236      0.0330
   1413 H           8.0552   22.7991    6.1157 H     236  UNL236      0.0521
   1414 H           8.0553   24.3947    6.9293 H     236  UNL236      0.0521
   1415 H           8.0652   22.8966    7.8961 H     236  UNL236      0.0521
   1416 H          10.1220   23.7880    6.1477 H     236  UNL236      0.2090
   1417 O          11.3668   27.5207   11.4607 O.3   237  UNL237     -0.3982
   1418 C          10.5756   27.2077   10.3292 C.3   237  UNL237      0.0330
   1419 H          10.4639   26.1234   10.2501 H     237  UNL237      0.0521
   1420 H          11.0533   27.6020    9.4290 H     237  UNL237      0.0521
   1421 H           9.5906   27.6656   10.4467 H     237  UNL237      0.0521
   1422 H          12.2340   27.1012   11.3279 H     237  UNL237      0.2090
   1423 O          11.5825   25.3349   12.7784 O.3   238  UNL238     -0.3982
   1424 C          10.1667   25.3349   12.7784 C.3   238  UNL238      0.0330
   1425 H           9.8014   26.1640   12.1674 H     238  UNL238      0.0521
   1426 H           9.8015   25.4351   13.8034 H     238  UNL238      0.0521
   1427 H           9.8114   24.3911   12.3580 H     238  UNL238      0.0521
   1428 H          11.8682   26.1839   13.1566 H     238  UNL238      0.2090
   1429 O          11.9080   25.2455   17.2568 O.3   239  UNL239     -0.3982
   1430 C          10.7032   25.9892   17.2568 C.3   239  UNL239      0.0330
   1431 H          10.8951   26.9955   17.6373 H     239  UNL239      0.0521
   1432 H           9.9634   25.4859   17.8840 H     239  UNL239      0.0521
   1433 H          10.3261   26.0546   16.2336 H     239  UNL239      0.0521
   1434 H          12.2184   25.2045   18.1774 H     239  UNL239      0.2090
   1435 O          12.5332   27.9823    2.6083 O.3   240  UNL240     -0.3982
   1436 C          11.1174   27.9823    2.6083 C.3   240  UNL240      0.0330
   1437 H          10.7521   27.2133    3.2935 H     240  UNL240      0.0521
   1438 H          10.7522   27.7876    1.5970 H     240  UNL240      0.0521
   1439 H          10.7621   28.9609    2.9395 H     240  UNL240      0.0521
   1440 H          12.8189   27.1019    2.3103 H     240  UNL240      0.2090
   1441 O          11.3118   29.9834    5.1063 O.3   241  UNL241     -0.3982
   1442 C           9.8960   29.9834    5.1063 C.3   241  UNL241      0.0330
   1443 H           9.5307   29.2144    5.7915 H     241  UNL241      0.0521
   1444 H           9.5308   29.7887    4.0950 H     241  UNL241      0.0521
   1445 H           9.5407   30.9620    5.4375 H     241  UNL241      0.0521
   1446 H          11.5975   29.1030    4.8083 H     241  UNL241      0.2090
   1447 O          10.4756   27.5368    7.1008 O.3   242  UNL242     -0.3982
   1448 C          11.8853   27.5368    6.9697 C.3   242  UNL242      0.0330
   1449 H          12.1856   26.7678    6.2536 H     242  UNL242      0.0521
   1450 H          12.3426   27.3421    7.9428 H     242  UNL242      0.0521
   1451 H          12.2084   28.5154    6.6070 H     242  UNL242      0.0521
   1452 H          10.2187   26.6564    7.4240 H     242  UNL242      0.2090
   1453 O          10.8815   29.9690    8.6306 O.3   243  UNL243     -0.3982
   1454 C           9.4657   29.9690    8.6306 C.3   243  UNL243      0.0330
   1455 H           9.1004   29.2000    9.3158 H     243  UNL243      0.0521
   1456 H           9.1005   29.7743    7.6193 H     243  UNL243      0.0521
   1457 H           9.1104   30.9476    8.9618 H     243  UNL243      0.0521
   1458 H          11.1672   29.0886    8.3326 H     243  UNL243      0.2090
   1459 O           8.7928   28.6109   14.9609 O.3   244  UNL244     -0.3982
   1460 C           8.9976   28.6109   13.5600 C.3   244  UNL244      0.0330
   1461 H           8.3724   27.8419   13.0994 H     244  UNL244      0.0521
   1462 H          10.0511   28.4162   13.3449 H     244  UNL244      0.0521
   1463 H           8.7212   29.5895   13.1605 H     244  UNL244      0.0521
   1464 H           9.0464   27.7305   15.2867 H     244  UNL244      0.2090
   1465 O          12.2873   29.5022   17.4924 O.3   245  UNL245     -0.3982
   1466 C          10.8715   29.5022   17.4924 C.3   245  UNL245      0.0330
   1467 H          10.5062   28.7332   18.1776 H     245  UNL245      0.0521
   1468 H          10.5063   29.3075   16.4811 H     245  UNL245      0.0521
   1469 H          10.5162   30.4808   17.8236 H     245  UNL245      0.0521
   1470 H          12.5730   28.6218   17.1944 H     245  UNL245      0.2090
   1471 O          10.4675   30.1656    0.4555 O.3   246  UNL246     -0.3982
   1472 C          11.8772   30.1656    0.5867 C.3   246  UNL246      0.0330
   1473 H          12.1459   30.0768    1.6422 H     246  UNL246      0.0521
   1474 H          12.2824   31.0923    0.1732 H     246  UNL246      0.0521
   1475 H          12.2852   29.3146    0.0363 H     246  UNL246      0.0521
   1476 H          10.1342   30.9312    0.9538 H     246  UNL246      0.2090
   1477 O          12.9195   31.9667    3.2218 O.3   247  UNL247     -0.3982
   1478 C          11.5037   31.9667    3.2218 C.3   247  UNL247      0.0330
   1479 H          11.1384   32.8227    2.6490 H     247  UNL247      0.0521
   1480 H          11.1385   32.0203    4.2503 H     247  UNL247      0.0521
   1481 H          11.1484   31.0430    2.7590 H     247  UNL247      0.0521
   1482 H          13.2052   32.7977    3.6382 H     247  UNL247      0.2090
   1483 O          12.1924   32.3508    7.5947 O.3   248  UNL248     -0.3982
   1484 C          10.7766   32.3508    7.5947 C.3   248  UNL248      0.0330
   1485 H          10.4113   33.2068    7.0219 H     248  UNL248      0.0521
   1486 H          10.4114   32.4044    8.6231 H     248  UNL248      0.0521
   1487 H          10.4213   31.4271    7.1319 H     248  UNL248      0.0521
   1488 H          12.4781   33.1818    8.0110 H     248  UNL248      0.2090
   1489 O          11.8958   29.8581   10.9330 O.3   249  UNL249     -0.3982
   1490 C          11.1046   31.0100   11.1602 C.3   249  UNL249      0.0330
   1491 H          10.9929   31.5665   10.2263 H     249  UNL249      0.0521
   1492 H          11.5823   31.6380   11.9161 H     249  UNL249      0.0521
   1493 H          10.1196   30.6997   11.5169 H     249  UNL249      0.0521
   1494 H          12.7629   30.1649   10.6175 H     249  UNL249      0.2090
   1495 O          11.5848   31.5767   14.2253 O.3   250  UNL250     -0.3982
   1496 C          10.1690   31.5767   14.2253 C.3   250  UNL250      0.0330
   1497 H           9.8037   31.4880   13.1991 H     250  UNL250      0.0521
   1498 H           9.8038   32.5034   14.6745 H     250  UNL250      0.0521
   1499 H           9.8137   30.7257   14.8111 H     250  UNL250      0.0521
   1500 H          11.8705   32.3423   13.6983 H     250  UNL250      0.2090
   1501 O           9.2561   31.5669   16.7234 O.3   251  UNL251     -0.3982
   1502 C           7.8403   31.5669   16.7234 C.3   251  UNL251      0.0330
   1503 H           7.4750   32.2931   15.9930 H     251  UNL251      0.0521
   1504 H           7.4751   31.8223   17.7211 H     251  UNL251      0.0521
   1505 H           7.4850   30.5701   16.4519 H     251  UNL251      0.0521
   1506 H           9.5418   32.4637   16.9677 H     251  UNL251      0.2090
   1507 O          10.7766   35.6295    0.6255 O.3   252  UNL252     -0.3982
   1508 C          11.1224   34.9134    1.7968 C.3   252  UNL252      0.0330
   1509 H          11.5287   35.6036    2.5404 H     252  UNL252      0.0521
   1510 H          11.8627   34.1480    1.5517 H     252  UNL252      0.0521
   1511 H          10.2261   34.4349    2.1984 H     252  UNL252      0.0521
   1512 H          11.5912   36.0428    0.2923 H     252  UNL252      0.2090
   1513 O          12.3786   35.0639    5.0444 O.3   253  UNL253     -0.3982
   1514 C          10.9628   35.0639    5.0444 C.3   253  UNL253      0.0330
   1515 H          10.5975   34.2949    5.7296 H     253  UNL253      0.0521
   1516 H          10.5976   34.8692    4.0331 H     253  UNL253      0.0521
   1517 H          10.6075   36.0425    5.3756 H     253  UNL253      0.0521
   1518 H          12.6643   34.1835    4.7464 H     253  UNL253      0.2090
   1519 O          10.9254   35.1379    8.0654 O.3   254  UNL254     -0.3982
   1520 C           9.5096   35.1379    8.0654 C.3   254  UNL254      0.0330
   1521 H           9.1443   35.8401    7.3119 H     254  UNL254      0.0521
   1522 H           9.1444   35.4254    9.0543 H     254  UNL254      0.0521
   1523 H           9.1543   34.1328    7.8263 H     254  UNL254      0.0521
   1524 H          11.2111   36.0421    8.2806 H     254  UNL254      0.2090
   1525 O          11.7639   34.0783   10.9286 O.3   255  UNL255     -0.3982
   1526 C          10.3481   34.0783   10.9286 C.3   255  UNL255      0.0330
   1527 H           9.9828   33.3093   11.6138 H     255  UNL255      0.0521
   1528 H           9.9829   33.8836    9.9173 H     255  UNL255      0.0521
   1529 H           9.9928   35.0569   11.2598 H     255  UNL255      0.0521
   1530 H          12.0496   33.1979   10.6306 H     255  UNL255      0.2090
   1531 O          10.7876   34.4187   14.4792 O.3   256  UNL256     -0.3982
   1532 C          11.4085   35.3756   13.6406 C.3   256  UNL256      0.0330
   1533 H          12.0234   34.8643   12.8957 H     256  UNL256      0.0521
   1534 H          12.0283   36.0429   14.2443 H     256  UNL256      0.0521
   1535 H          10.6359   35.9586   13.1339 H     256  UNL256      0.0521
   1536 H          11.4976   33.9172   14.9149 H     256  UNL256      0.2090
   1537 O          10.5333   35.7325   17.5934 O.3   257  UNL257     -0.3982
   1538 C          10.3542   34.3663   17.2682 C.3   257  UNL257      0.0330
   1539 H           9.5291   34.2648   16.5588 H     257  UNL257      0.0521
   1540 H          10.1389   33.7996   18.1774 H     257  UNL257      0.0521
   1541 H          11.2718   33.9861   16.8133 H     257  UNL257      0.0521
   1542 H           9.7035   36.0418   17.9950 H     257  UNL257      0.2090
   1543 O          14.0226    0.7168    1.4470 O.3   258  UNL258     -0.3982
   1544 C          15.4323    0.7168    1.3159 C.3   258  UNL258      0.0330
   1545 H          15.7326   -0.0522    0.5998 H     258  UNL258      0.0521
   1546 H          15.8896    0.5221    2.2890 H     258  UNL258      0.0521
   1547 H          15.7554    1.6954    0.9532 H     258  UNL258      0.0521
   1548 H          13.7657   -0.1636    1.7702 H     258  UNL258      0.2090
   1549 O          12.4836    1.0495    5.0402 O.3   259  UNL259     -0.3982
   1550 C          11.6923    0.7365    3.9086 C.3   259  UNL259      0.0330
   1551 H          11.5806   -0.3478    3.8296 H     259  UNL259      0.0521
   1552 H          12.1701    1.1308    3.0085 H     259  UNL259      0.0521
   1553 H          10.7074    1.1944    4.0261 H     259  UNL259      0.0521
   1554 H          13.3507    0.6300    4.9073 H     259  UNL259      0.2090
   1555 O          15.6051    0.3507    8.5168 O.3   260  UNL260     -0.3982
   1556 C          14.1893    0.3507    8.5168 C.3   260  UNL260      0.0330
   1557 H          13.8240   -0.4183    9.2020 H     260  UNL260      0.0521
   1558 H          13.8241    0.1560    7.5055 H     260  UNL260      0.0521
   1559 H          13.8340    1.3293    8.8480 H     260  UNL260      0.0521
   1560 H          15.8908   -0.5297    8.2188 H     260  UNL260      0.2090
   1561 O          15.8905    0.5315   12.6397 O.3   261  UNL261     -0.3982
   1562 C          15.1326   -0.6028   13.0186 C.3   261  UNL261      0.0330
   1563 H          14.0796   -0.4352   12.7791 H     261  UNL261      0.0521
   1564 H          15.2500   -0.7788   14.0907 H     261  UNL261      0.0521
   1565 H          15.4956   -1.4731   12.4669 H     261  UNL261      0.0521
   1566 H          15.5458    1.2873   13.1452 H     261  UNL261      0.2090
   1567 O          13.0142   -0.2253   14.8234 O.3   262  UNL262     -0.3982
   1568 C          11.5984   -0.2253   14.8234 C.3   262  UNL262      0.0330
   1569 H          11.2331   -0.9943   15.5086 H     262  UNL262      0.0521
   1570 H          11.2332   -0.4200   13.8121 H     262  UNL262      0.0521
   1571 H          11.2431    0.7533   15.1546 H     262  UNL262      0.0521
   1572 H          13.2999   -1.1057   14.5254 H     262  UNL262      0.2090
   1573 O          12.5751    1.0297   17.1646 O.3   263  UNL263     -0.3982
   1574 C          11.8920    2.2699   17.1646 C.3   263  UNL263      0.0330
   1575 H          11.8764    2.6783   18.1781 H     263  UNL263      0.0521
   1576 H          10.8712    2.1245   16.8031 H     263  UNL263      0.0521
   1577 H          12.4153    2.9637   16.5025 H     263  UNL263      0.0521
   1578 H          12.0880    0.4352   17.7602 H     263  UNL263      0.2090
   1579 O          15.6049    3.8014    1.5519 O.3   264  UNL264     -0.3982
   1580 C          14.1891    3.8014    1.5519 C.3   264  UNL264      0.0330
   1581 H          13.8238    4.5037    0.7984 H     264  UNL264      0.0521
   1582 H          13.8239    4.0889    2.5408 H     264  UNL264      0.0521
   1583 H          13.8338    2.7964    1.3127 H     264  UNL264      0.0521
   1584 H          15.8906    4.7056    1.7671 H     264  UNL264      0.2090
   1585 O          15.3547    1.7222    5.0339 O.3   265  UNL265     -0.3982
   1586 C          14.5634    2.4291    4.0965 C.3   265  UNL265      0.0330
   1587 H          15.2133    2.9635    3.3991 H     265  UNL265      0.0521
   1588 H          13.9171    3.1354    4.6231 H     265  UNL265      0.0521
   1589 H          13.9466    1.7168    3.5434 H     265  UNL265      0.0521
   1590 H          15.8906    2.3799    5.5090 H     265  UNL265      0.2090
   1591 O          15.6048    3.2112    7.4239 O.3   266  UNL266     -0.3982
   1592 C          14.1890    3.2112    7.4239 C.3   266  UNL266      0.0330
   1593 H          13.8237    4.0404    6.8129 H     266  UNL266      0.0521
   1594 H          13.8238    3.3114    8.4489 H     266  UNL266      0.0521
   1595 H          13.8337    2.2675    7.0035 H     266  UNL266      0.0521
   1596 H          15.8905    4.0602    7.8022 H     266  UNL266      0.2090
   1597 O          14.0226    3.0635   10.7563 O.3   267  UNL267     -0.3982
   1598 C          15.4323    3.0635   10.6252 C.3   267  UNL267      0.0330
   1599 H          15.7326    2.2945    9.9091 H     267  UNL267      0.0521
   1600 H          15.8896    2.8688   11.5983 H     267  UNL267      0.0521
   1601 H          15.7554    4.0421   10.2625 H     267  UNL267      0.0521
   1602 H          13.7657    2.1831   11.0795 H     267  UNL267      0.2090
   1603 O          15.6045    2.5938   14.7039 O.3   268  UNL268     -0.3982
   1604 C          14.1887    2.5938   14.7039 C.3   268  UNL268      0.0330
   1605 H          13.8234    2.0270   13.8438 H     268  UNL268      0.0521
   1606 H          13.8235    3.6226   14.6575 H     268  UNL268      0.0521
   1607 H          13.8334    2.1245   15.6243 H     268  UNL268      0.0521
   1608 H          15.8902    3.0160   13.8758 H     268  UNL268      0.2090
   1609 O          14.0522    3.9134   17.2935 O.3   269  UNL269     -0.3982
   1610 C          15.4619    3.7823   17.2935 C.3   269  UNL269      0.0330
   1611 H          15.7322    2.7437   17.4995 H     269  UNL269      0.0521
   1612 H          15.8898    4.4392   18.0547 H     269  UNL269      0.0521
   1613 H          15.8454    4.0684   16.3112 H     269  UNL269      0.0521
   1614 H          13.7411    3.6530   18.1771 H     269  UNL269      0.2090
   1615 O          15.6045    6.7837    0.3265 O.3   270  UNL270     -0.3982
   1616 C          14.1887    6.7837    0.3265 C.3   270  UNL270      0.0330
   1617 H          13.8234    6.3154    1.2439 H     270  UNL270      0.0521
   1618 H          13.8235    6.2357   -0.5454 H     270  UNL270      0.0521
   1619 H          13.8334    7.8158    0.2805 H     270  UNL270      0.0521
   1620 H          15.8902    5.8552    0.3679 H     270  UNL270      0.2090
   1621 O          14.9052    6.0044    3.8366 O.3   271  UNL271     -0.3982
   1622 C          13.4894    6.0044    3.8366 C.3   271  UNL271      0.0330
   1623 H          13.1241    6.9945    4.1203 H     271  UNL271      0.0521
   1624 H          13.1242    5.2537    4.5416 H     271  UNL271      0.0521
   1625 H          13.1341    5.7613    2.8325 H     271  UNL271      0.0521
   1626 H          15.1909    6.2231    4.7400 H     271  UNL271      0.2090
   1627 O          15.6047    6.5236    7.0930 O.3   272  UNL272     -0.3982
   1628 C          14.1889    6.5236    7.0930 C.3   272  UNL272      0.0330
   1629 H          13.8236    5.7546    7.7782 H     272  UNL272      0.0521
   1630 H          13.8237    6.3289    6.0817 H     272  UNL272      0.0521
   1631 H          13.8336    7.5022    7.4242 H     272  UNL272      0.0521
   1632 H          15.8904    5.6432    6.7950 H     272  UNL272      0.2090
   1633 O          15.6046    7.3040   10.2446 O.3   273  UNL273     -0.3982
   1634 C          14.1888    7.3040   10.2446 C.3   273  UNL273      0.0330
   1635 H          13.8235    7.2153    9.2185 H     273  UNL273      0.0521
   1636 H          13.8236    8.2308   10.6939 H     273  UNL273      0.0521
   1637 H          13.8335    6.4531   10.8304 H     273  UNL273      0.0521
   1638 H          15.8903    8.0697    9.7176 H     273  UNL273      0.2090
   1639 O          15.6046    5.4948   13.2166 O.3   274  UNL274     -0.3982
   1640 C          14.1888    5.4948   13.2166 C.3   274  UNL274      0.0330
   1641 H          13.8235    6.3240   12.6056 H     274  UNL274      0.0521
   1642 H          13.8236    5.5950   14.2416 H     274  UNL274      0.0521
   1643 H          13.8335    4.5511   12.7962 H     274  UNL274      0.0521
   1644 H          15.8903    6.3438   13.5949 H     274  UNL274      0.2090
   1645 O          15.6045    6.9719   17.4924 O.3   275  UNL275     -0.3982
   1646 C          14.1887    6.9719   17.4924 C.3   275  UNL275      0.0330
   1647 H          13.8234    6.2029   18.1776 H     275  UNL275      0.0521
   1648 H          13.8235    6.7772   16.4811 H     275  UNL275      0.0521
   1649 H          13.8334    7.9505   17.8236 H     275  UNL275      0.0521
   1650 H          15.8902    6.0915   17.1944 H     275  UNL275      0.2090
   1651 O          14.4514    9.6771    1.3781 O.3   276  UNL276     -0.3982
   1652 C          13.0356    9.6771    1.3781 C.3   276  UNL276      0.0330
   1653 H          12.6703   10.3794    0.6246 H     276  UNL276      0.0521
   1654 H          12.6704    9.9646    2.3670 H     276  UNL276      0.0521
   1655 H          12.6803    8.6720    1.1389 H     276  UNL276      0.0521
   1656 H          14.7371   10.5813    1.5933 H     276  UNL276      0.2090
   1657 O          15.6045    9.0328    4.5782 O.3   277  UNL277     -0.3982
   1658 C          14.1887    9.0328    4.5782 C.3   277  UNL277      0.0330
   1659 H          13.8234    8.2638    5.2634 H     277  UNL277      0.0521
   1660 H          13.8235    8.8381    3.5669 H     277  UNL277      0.0521
   1661 H          13.8334   10.0114    4.9094 H     277  UNL277      0.0521
   1662 H          15.8902    8.1524    4.2802 H     277  UNL277      0.2090
   1663 O          14.7647    9.7528    7.5427 O.3   278  UNL278     -0.3982
   1664 C          13.3489    9.7528    7.5427 C.3   278  UNL278      0.0330
   1665 H          12.9836   10.7429    7.8264 H     278  UNL278      0.0521
   1666 H          12.9837    9.0021    8.2477 H     278  UNL278      0.0521
   1667 H          12.9936    9.5097    6.5386 H     278  UNL278      0.0521
   1668 H          15.0504    9.9715    8.4461 H     278  UNL278      0.2090
   1669 O          15.8908   10.9710   10.4937 O.3   279  UNL279     -0.3982
   1670 C          14.5713   11.4842   10.4937 C.3   279  UNL279      0.0330
   1671 H          13.9521   10.8999   11.1789 H     279  UNL279      0.0521
   1672 H          14.1603   11.4351    9.4824 H     279  UNL279      0.0521
   1673 H          14.5949   12.5250   10.8249 H     279  UNL279      0.0521
   1674 H          15.8379   10.0469   10.1957 H     279  UNL279      0.2090
   1675 O          14.0226    8.7857   13.2160 O.3   280  UNL280     -0.3982
   1676 C          15.4323    8.7857   13.0849 C.3   280  UNL280      0.0330
   1677 H          15.7326    8.0167   12.3688 H     280  UNL280      0.0521
   1678 H          15.8896    8.5910   14.0580 H     280  UNL280      0.0521
   1679 H          15.7554    9.7643   12.7222 H     280  UNL280      0.0521
   1680 H          13.7657    7.9053   13.5392 H     280  UNL280      0.2090
   1681 O          15.8908    9.5675   17.6263 O.3   281  UNL281     -0.3982
   1682 C          15.2077    9.5675   16.3861 C.3   281  UNL281      0.0330
   1683 H          15.5667   10.3967   15.7714 H     281  UNL281      0.0521
   1684 H          14.1337    9.6678   16.5608 H     281  UNL281      0.0521
   1685 H          15.4045    8.6238   15.8721 H     281  UNL281      0.0521
   1686 H          15.6973   10.4166   18.0590 H     281  UNL281      0.2090
   1687 O          12.1493   13.1127   -0.0013 O.3   282  UNL282     -0.3982
   1688 C          12.1661   12.4943    1.2722 C.3   282  UNL282      0.0330
   1689 H          13.1123   11.9650    1.4089 H     282  UNL282      0.0521
   1690 H          11.3304   11.7946    1.3495 H     282  UNL282      0.0521
   1691 H          12.0668   13.2634    2.0419 H     282  UNL282      0.0521
   1692 H          12.2389   12.4060   -0.6632 H     282  UNL282      0.2090
   1693 O          14.0217   11.9463    3.6673 O.3   283  UNL283     -0.3982
   1694 C          15.4314   11.9463    3.7984 C.3   283  UNL283      0.0330
   1695 H          15.7547   12.8793    4.2668 H     283  UNL283      0.0521
   1696 H          15.8899   11.8435    2.8119 H     283  UNL283      0.0521
   1697 H          15.7299   11.1035    4.4261 H     283  UNL283      0.0521
   1698 H          13.7870   12.7046    3.1056 H     283  UNL283      0.2090
   1699 O          15.6047   13.5043    6.7410 O.3   284  UNL284     -0.3982
   1700 C          14.1889   13.5043    6.7410 C.3   284  UNL284      0.0330
   1701 H          13.8236   12.7353    7.4262 H     284  UNL284      0.0521
   1702 H          13.8237   13.3096    5.7297 H     284  UNL284      0.0521
   1703 H          13.8336   14.4829    7.0722 H     284  UNL284      0.0521
   1704 H          15.8904   12.6239    6.4430 H     284  UNL284      0.2090
   1705 O          13.7764   14.2884    9.5405 O.3   285  UNL285     -0.3982
   1706 C          15.1861   14.2642    9.4116 C.3   285  UNL285      0.0330
   1707 H          15.4864   13.3763    8.8496 H     285  UNL285      0.0521
   1708 H          15.6434   14.2523   10.4039 H     285  UNL285      0.0521
   1709 H          15.5092   15.1591    8.8747 H     285  UNL285      0.0521
   1710 H          13.5195   13.4827   10.0204 H     285  UNL285      0.2090
   1711 O          15.1911   11.5084   14.0367 O.3   286  UNL286     -0.3982
   1712 C          13.7753   11.5084   14.0367 C.3   286  UNL286      0.0330
   1713 H          13.4100   11.4197   13.0105 H     286  UNL286      0.0521
   1714 H          13.4101   12.4352   14.4859 H     286  UNL286      0.0521
   1715 H          13.4200   10.6574   14.6224 H     286  UNL286      0.0521
   1716 H          15.4768   12.2741   13.5097 H     286  UNL286      0.2090
   1717 O          15.6047   12.4023   17.2944 O.3   287  UNL287     -0.3982
   1718 C          14.1889   12.4023   17.2944 C.3   287  UNL287      0.0330
   1719 H          13.8236   13.4115   17.5005 H     287  UNL287      0.0521
   1720 H          13.8237   11.7086   18.0556 H     287  UNL287      0.0521
   1721 H          13.8336   12.0820   16.3122 H     287  UNL287      0.0521
   1722 H          15.8904   12.6905   18.1781 H     287  UNL287      0.2090
   1723 O          14.2078   14.5838    1.4632 O.3   288  UNL288     -0.3982
   1724 C          15.0551   15.6745    1.1517 C.3   288  UNL288      0.0330
   1725 H          15.8898   15.3252    0.5389 H     288  UNL288      0.0521
   1726 H          15.4296   16.1215    2.0758 H     288  UNL288      0.0521
   1727 H          14.4837   16.4203    0.5942 H     288  UNL288      0.0521
   1728 H          14.7422   13.9389    1.9573 H     288  UNL288      0.2090
   1729 O          15.6045   15.2534    4.1546 O.3   289  UNL289     -0.3982
   1730 C          14.1887   15.2534    4.1546 C.3   289  UNL289      0.0330
   1731 H          13.8234   15.9557    3.4011 H     289  UNL289      0.0521
   1732 H          13.8235   15.5409    5.1435 H     289  UNL289      0.0521
   1733 H          13.8334   14.2484    3.9154 H     289  UNL289      0.0521
   1734 H          15.8902   16.1576    4.3698 H     289  UNL289      0.2090
   1735 O          14.0410   16.9431    7.4506 O.3   290  UNL290     -0.3982
   1736 C          15.4507   16.9309    7.3201 C.3   290  UNL290      0.0330
   1737 H          15.7348   17.4128    6.3813 H     290  UNL290      0.0521
   1738 H          15.8101   15.8991    7.3357 H     290  UNL290      0.0521
   1739 H          15.8897   17.4800    8.1564 H     290  UNL290      0.0521
   1740 H          13.6798   16.4488    6.6951 H     290  UNL290      0.2090
   1741 O          15.0321   16.6027   10.8679 O.3   291  UNL291     -0.3982
   1742 C          13.6163   16.6027   10.8679 C.3   291  UNL291      0.0330
   1743 H          13.2510   17.6119   11.0739 H     291  UNL291      0.0521
   1744 H          13.2511   15.9090   11.6291 H     291  UNL291      0.0521
   1745 H          13.2610   16.2824    9.8857 H     291  UNL291      0.0521
   1746 H          15.3178   16.8908   11.7515 H     291  UNL291      0.2090
   1747 O          15.6051   14.5918   13.8260 O.3   292  UNL292     -0.3982
   1748 C          14.1893   14.5918   13.8260 C.3   292  UNL292      0.0330
   1749 H          13.8240   13.7289   13.2636 H     292  UNL292      0.0521
   1750 H          13.8241   15.5166   13.3729 H     292  UNL292      0.0521
   1751 H          13.8340   14.5288   14.8572 H     292  UNL292      0.0521
   1752 H          15.8908   14.6485   12.8982 H     292  UNL292      0.2090
   1753 O          15.6045   15.7951   17.4924 O.3   293  UNL293     -0.3982
   1754 C          14.1887   15.7951   17.4924 C.3   293  UNL293      0.0330
   1755 H          13.8234   15.0261   18.1776 H     293  UNL293      0.0521
   1756 H          13.8235   15.6004   16.4811 H     293  UNL293      0.0521
   1757 H          13.8334   16.7737   17.8236 H     293  UNL293      0.0521
   1758 H          15.8902   14.9147   17.1944 H     293  UNL293      0.2090
   1759 O          14.0366   19.0487    0.9239 O.3   294  UNL294     -0.3982
   1760 C          15.4463   19.1798    0.9239 C.3   294  UNL294      0.0330
   1761 H          15.7388   19.9793    1.6091 H     294  UNL294      0.0521
   1762 H          15.7919   19.4075   -0.0874 H     294  UNL294      0.0521
   1763 H          15.8907   18.2383    1.2551 H     294  UNL294      0.0521
   1764 H          13.6706   19.8989    0.6259 H     294  UNL294      0.2090
   1765 O          15.6041   18.6965    3.9380 O.3   295  UNL295     -0.3982
   1766 C          14.1883   18.6965    3.9380 C.3   295  UNL295      0.0330
   1767 H          13.8230   19.1561    4.8598 H     295  UNL295      0.0521
   1768 H          13.8231   17.6696    3.8607 H     295  UNL295      0.0521
   1769 H          13.8330   19.2728    3.0805 H     295  UNL295      0.0521
   1770 H          15.8898   18.1781    4.7094 H     295  UNL295      0.2090
   1771 O          15.6045   19.6828    7.7311 O.3   296  UNL296     -0.3982
   1772 C          14.1887   19.6828    7.7311 C.3   296  UNL296      0.0330
   1773 H          13.8234   19.1160    6.8711 H     296  UNL296      0.0521
   1774 H          13.8235   20.7117    7.6847 H     296  UNL296      0.0521
   1775 H          13.8334   19.2136    8.6515 H     296  UNL296      0.0521
   1776 H          15.8902   20.1050    6.9031 H     296  UNL296      0.2090
   1777 O          14.0098   19.5432   10.9892 O.3   297  UNL297     -0.3982
   1778 C          15.3950   19.7475   11.1983 C.3   297  UNL297      0.0330
   1779 H          15.5428   20.6190   11.8409 H     297  UNL297      0.0521
   1780 H          15.8907   19.9021   10.2368 H     297  UNL297      0.0521
   1781 H          15.8151   18.8638   11.6843 H     297  UNL297      0.0521
   1782 H          13.6651   20.3431   10.5569 H     297  UNL297      0.2090
   1783 O          15.6051   17.7027   14.2261 O.3   298  UNL298     -0.3982
   1784 C          14.1893   17.7027   14.2261 C.3   298  UNL298      0.0330
   1785 H          13.8240   16.9337   14.9113 H     298  UNL298      0.0521
   1786 H          13.8241   17.5080   13.2148 H     298  UNL298      0.0521
   1787 H          13.8340   18.6813   14.5573 H     298  UNL298      0.0521
   1788 H          15.8908   16.8223   13.9281 H     298  UNL298      0.2090
   1789 O          14.6093   18.4677   16.8608 O.3   299  UNL299     -0.3982
   1790 C          15.0651   19.8040   16.9658 C.3   299  UNL299      0.0330
   1791 H          15.8908   19.9642   16.2680 H     299  UNL299      0.0521
   1792 H          15.3960   19.9976   17.9891 H     299  UNL299      0.0521
   1793 H          14.2440   20.4801   16.7166 H     299  UNL299      0.0521
   1794 H          15.3590   17.8914   17.0875 H     299  UNL299      0.2090
   1795 O          15.6051   22.7944    2.2372 O.3   300  UNL300     -0.3982
   1796 C          14.1893   22.7944    2.2372 C.3   300  UNL300      0.0330
   1797 H          13.8240   22.0254    2.9224 H     300  UNL300      0.0521
   1798 H          13.8241   22.5997    1.2259 H     300  UNL300      0.0521
   1799 H          13.8340   23.7730    2.5684 H     300  UNL300      0.0521
   1800 H          15.8908   21.9140    1.9392 H     300  UNL300      0.2090
   1801 O          14.2078   22.6082    5.0839 O.3   301  UNL301     -0.3982
   1802 C          15.0551   21.4739    5.0839 C.3   301  UNL301      0.0330
   1803 H          15.8898   21.6415    5.7691 H     301  UNL301      0.0521
   1804 H          15.4296   21.2979    4.0725 H     301  UNL301      0.0521
   1805 H          14.4837   20.6036    5.4151 H     301  UNL301      0.0521
   1806 H          14.7422   23.3640    4.7859 H     301  UNL301      0.2090
   1807 O          15.6045   22.8910    8.2898 O.3   302  UNL302     -0.3982
   1808 C          14.1887   22.8910    8.2898 C.3   302  UNL302      0.0330
   1809 H          13.8234   22.1220    8.9750 H     302  UNL302      0.0521
   1810 H          13.8235   22.6963    7.2785 H     302  UNL302      0.0521
   1811 H          13.8334   23.8696    8.6210 H     302  UNL302      0.0521
   1812 H          15.8902   22.0106    7.9918 H     302  UNL302      0.2090
   1813 O          13.3992   22.5484   11.1557 O.3   303  UNL303     -0.3982
   1814 C          14.7785   22.8541   11.0630 C.3   303  UNL303      0.0330
   1815 H          15.1453   23.1866   12.0373 H     303  UNL303      0.0521
   1816 H          14.9293   23.6389   10.3178 H     303  UNL303      0.0521
   1817 H          15.3217   21.9564   10.7586 H     303  UNL303      0.0521
   1818 H          12.9436   23.3633   11.4273 H     303  UNL303      0.2090
   1819 O          15.6045   21.3676   14.0745 O.3   304  UNL304     -0.3982
   1820 C          14.1887   21.3676   14.0745 C.3   304  UNL304      0.0330
   1821 H          13.8234   20.5986   14.7597 H     304  UNL304      0.0521
   1822 H          13.8235   21.1729   13.0632 H     304  UNL304      0.0521
   1823 H          13.8334   22.3462   14.4057 H     304  UNL304      0.0521
   1824 H          15.8902   20.4872   13.7765 H     304  UNL304      0.2090
   1825 O          15.6049   22.9574   17.2935 O.3   305  UNL305     -0.3982
   1826 C          14.1891   22.9574   17.2935 C.3   305  UNL305      0.0330
   1827 H          13.8238   23.9666   17.4995 H     305  UNL305      0.0521
   1828 H          13.8239   22.2637   18.0547 H     305  UNL305      0.0521
   1829 H          13.8338   22.6371   16.3112 H     305  UNL305      0.0521
   1830 H          15.8906   23.2455   18.1771 H     305  UNL305      0.2090
   1831 O          12.6828   26.0229   -0.2891 O.3   306  UNL306     -0.3982
   1832 C          13.3315   25.1579    0.6249 C.3   306  UNL306      0.0330
   1833 H          13.4955   25.6816    1.5699 H     306  UNL306      0.0521
   1834 H          14.2869   24.8333    0.2053 H     306  UNL306      0.0521
   1835 H          12.6976   24.2854    0.7995 H     306  UNL306      0.0521
   1836 H          13.2687   26.7871   -0.4244 H     306  UNL306      0.2090
   1837 O          15.6047   25.7596    4.5348 O.3   307  UNL307     -0.3982
   1838 C          14.1889   25.7596    4.5348 C.3   307  UNL307      0.0330
   1839 H          13.8236   24.9906    5.2200 H     307  UNL307      0.0521
   1840 H          13.8237   25.5649    3.5235 H     307  UNL307      0.0521
   1841 H          13.8336   26.7382    4.8660 H     307  UNL307      0.0521
   1842 H          15.8904   24.8792    4.2368 H     307  UNL307      0.2090
   1843 O          12.4946   24.8907    7.4140 O.3   308  UNL308     -0.3982
   1844 C          11.4893   24.5777    8.3606 C.3   308  UNL308      0.0330
   1845 H          11.4273   23.4935    8.4826 H     308  UNL308      0.0521
   1846 H          10.5296   24.9721    8.0181 H     308  UNL308      0.0521
   1847 H          11.7480   25.0357    9.3182 H     308  UNL308      0.0521
   1848 H          12.2377   24.4712    6.5752 H     308  UNL308      0.2090
   1849 O          15.6047   25.6215   10.9246 O.3   309  UNL309     -0.3982
   1850 C          14.1889   25.6215   10.9246 C.3   309  UNL309      0.0330
   1851 H          13.8236   26.6306   11.1307 H     309  UNL309      0.0521
   1852 H          13.8237   24.9278   11.6858 H     309  UNL309      0.0521
   1853 H          13.8336   25.3011    9.9424 H     309  UNL309      0.0521
   1854 H          15.8904   25.9096   11.8083 H     309  UNL309      0.2090
   1855 O          15.6049   25.4521   14.3382 O.3   310  UNL310     -0.3982
   1856 C          14.1891   25.4521   14.3382 C.3   310  UNL310      0.0330
   1857 H          13.8238   25.9117   15.2600 H     310  UNL310      0.0521
   1858 H          13.8239   24.4252   14.2609 H     310  UNL310      0.0521
   1859 H          13.8338   26.0284   13.4807 H     310  UNL310      0.0521
   1860 H          15.8906   24.9337   15.1096 H     310  UNL310      0.2090
   1861 O          14.0366   26.3196   17.4924 O.3   311  UNL311     -0.3982
   1862 C          15.4463   26.4507   17.4924 C.3   311  UNL311      0.0330
   1863 H          15.7388   27.2503   18.1776 H     311  UNL311      0.0521
   1864 H          15.7919   26.6784   16.4811 H     311  UNL311      0.0521
   1865 H          15.8907   25.5092   17.8236 H     311  UNL311      0.0521
   1866 H          13.6706   27.1698   17.1944 H     311  UNL311      0.2090
   1867 O          14.6282   27.8730    1.1193 O.3   312  UNL312     -0.3982
   1868 C          14.9961   29.2379    1.1977 C.3   312  UNL312      0.0330
   1869 H          15.8897   29.4107    0.5928 H     312  UNL312      0.0521
   1870 H          15.1912   29.5042    2.2394 H     312  UNL312      0.0521
   1871 H          14.1757   29.8496    0.8151 H     312  UNL312      0.0521
   1872 H          15.3751   27.3554    1.4655 H     312  UNL312      0.2090
   1873 O          15.6043   29.1713    4.8454 O.3   313  UNL313     -0.3982
   1874 C          14.1885   29.1713    4.8454 C.3   313  UNL313      0.0330
   1875 H          13.8232   28.4023    5.5306 H     313  UNL313      0.0521
   1876 H          13.8233   28.9766    3.8341 H     313  UNL313      0.0521
   1877 H          13.8332   30.1499    5.1766 H     313  UNL313      0.0521
   1878 H          15.8900   28.2909    4.5474 H     313  UNL313      0.2090
   1879 O          14.2078   26.2654    7.8300 O.3   314  UNL314     -0.3982
   1880 C          15.0551   27.3948    7.7250 C.3   314  UNL314      0.0330
   1881 H          15.8898   27.1645    7.0582 H     314  UNL314      0.0521
   1882 H          15.4296   27.6637    8.7156 H     314  UNL314      0.0521
   1883 H          14.4837   28.2307    7.3146 H     314  UNL314      0.0521
   1884 H          14.7422   25.5405    8.1967 H     314  UNL314      0.2090
   1885 O          15.6045   28.6859   11.7378 O.3   315  UNL315     -0.3982
   1886 C          14.1887   28.6859   11.7378 C.3   315  UNL315      0.0330
   1887 H          13.8234   27.9169   12.4230 H     315  UNL315      0.0521
   1888 H          13.8235   28.4912   10.7265 H     315  UNL315      0.0521
   1889 H          13.8334   29.6645   12.0690 H     315  UNL315      0.0521
   1890 H          15.8902   27.8055   11.4398 H     315  UNL315      0.2090
   1891 O          13.6910   28.6700   14.3403 O.3   316  UNL316     -0.3982
   1892 C          12.2752   28.6700   14.3403 C.3   316  UNL316      0.0330
   1893 H          11.9099   28.8992   15.3445 H     316  UNL316      0.0521
   1894 H          11.9100   27.6903   14.0229 H     316  UNL316      0.0521
   1895 H          11.9199   29.4323   13.6429 H     316  UNL316      0.0521
   1896 H          13.9767   27.9843   14.9677 H     316  UNL316      0.2090
   1897 O          15.8902   29.6745   17.7453 O.3   317  UNL317     -0.3982
   1898 C          15.2071   29.6745   16.5052 C.3   317  UNL317      0.0330
   1899 H          15.5661   30.5036   15.8904 H     317  UNL317      0.0521
   1900 H          14.1331   29.7747   16.6798 H     317  UNL317      0.0521
   1901 H          15.4039   28.7308   15.9911 H     317  UNL317      0.0521
   1902 H          15.6967   30.5235   18.1780 H     317  UNL317      0.2090
   1903 O          14.0528   32.5063    0.8172 O.3   318  UNL318     -0.3982
   1904 C          15.4625   32.5063    0.9483 C.3   318  UNL318      0.0330
   1905 H          15.8897   31.7373    0.2999 H     318  UNL318      0.0521
   1906 H          15.7325   32.3116    1.9891 H     318  UNL318      0.0521
   1907 H          15.8469   33.4849    0.6514 H     318  UNL318      0.0521
   1908 H          13.7407   31.6259    1.0875 H     318  UNL318      0.2090
   1909 O          15.6047   32.1110    6.0678 O.3   319  UNL319     -0.3982
   1910 C          14.1889   32.1110    6.0678 C.3   319  UNL319      0.0330
   1911 H          13.8236   31.3420    6.7530 H     319  UNL319      0.0521
   1912 H          13.8237   31.9163    5.0565 H     319  UNL319      0.0521
   1913 H          13.8336   33.0896    6.3990 H     319  UNL319      0.0521
   1914 H          15.8904   31.2306    5.7698 H     319  UNL319      0.2090
   1915 O          14.0226   30.3625    8.6091 O.3   320  UNL320     -0.3982
   1916 C          15.4323   30.3625    8.4780 C.3   320  UNL320      0.0330
   1917 H          15.7326   29.5935    7.7619 H     320  UNL320      0.0521
   1918 H          15.8896   30.1678    9.4512 H     320  UNL320      0.0521
   1919 H          15.7554   31.3411    8.1153 H     320  UNL320      0.0521
   1920 H          13.7657   29.4821    8.9323 H     320  UNL320      0.2090
   1921 O          15.6049   32.2009   11.1230 O.3   321  UNL321     -0.3982
   1922 C          14.1891   32.2009   11.1230 C.3   321  UNL321      0.0330
   1923 H          13.8238   31.4319   11.8082 H     321  UNL321      0.0521
   1924 H          13.8239   32.0062   10.1117 H     321  UNL321      0.0521
   1925 H          13.8338   33.1795   11.4542 H     321  UNL321      0.0521
   1926 H          15.8906   31.3205   10.8250 H     321  UNL321      0.2090
   1927 O          15.6045   31.5638   14.1182 O.3   322  UNL322     -0.3982
   1928 C          14.1887   31.5638   14.1182 C.3   322  UNL322      0.0330
   1929 H          13.8234   30.7009   13.5558 H     322  UNL322      0.0521
   1930 H          13.8235   32.4886   13.6651 H     322  UNL322      0.0521
   1931 H          13.8334   31.5008   15.1494 H     322  UNL322      0.0521
   1932 H          15.8902   31.6205   13.1905 H     322  UNL322      0.2090
   1933 O          14.3269   32.1886   17.2935 O.3   323  UNL323     -0.3982
   1934 C          12.9111   32.1886   17.2935 C.3   323  UNL323      0.0330
   1935 H          12.5458   33.1978   17.4995 H     323  UNL323      0.0521
   1936 H          12.5459   31.4949   18.0547 H     323  UNL323      0.0521
   1937 H          12.5558   31.8683   16.3112 H     323  UNL323      0.0521
   1938 H          14.6126   32.4768   18.1771 H     323  UNL323      0.2090
   1939 O          15.5378   35.1161    1.8429 O.3   324  UNL324     -0.3982
   1940 C          14.1220   35.1161    1.8429 C.3   324  UNL324      0.0330
   1941 H          13.7567   35.0273    0.8168 H     324  UNL324      0.0521
   1942 H          13.7568   36.0428    2.2922 H     324  UNL324      0.0521
   1943 H          13.7667   34.2651    2.4287 H     324  UNL324      0.0521
   1944 H          15.8235   35.8817    1.3160 H     324  UNL324      0.2090
   1945 O          15.1118   34.1713    4.9120 O.3   325  UNL325     -0.3982
   1946 C          14.9479   35.5765    4.9667 C.3   325  UNL325      0.0330
   1947 H          14.6381   35.9465    3.9862 H     325  UNL325      0.0521
   1948 H          15.8906   36.0429    5.2628 H     325  UNL325      0.0521
   1949 H          14.1780   35.8160    5.7040 H     325  UNL325      0.0521
   1950 H          15.8005   33.9895    4.2500 H     325  UNL325      0.2090
   1951 O          15.6051   35.0268    8.1568 O.3   326  UNL326     -0.3982
   1952 C          14.1893   35.0268    8.1568 C.3   326  UNL326      0.0330
   1953 H          13.8240   34.6546    7.1964 H     326  UNL326      0.0521
   1954 H          13.8241   36.0422    8.3289 H     326  UNL326      0.0521
   1955 H          13.8340   34.3737    8.9572 H     326  UNL326      0.0521
   1956 H          15.8908   35.6145    7.4367 H     326  UNL326      0.2090
   1957 O          14.0818   35.1737   11.3008 O.3   327  UNL327     -0.3982
   1958 C          15.4965   35.2287   11.3008 C.3   327  UNL327      0.0330
   1959 H          15.8317   36.0113   11.9860 H     327  UNL327      0.0521
   1960 H          15.8539   35.4374   10.2895 H     327  UNL327      0.0521
   1961 H          15.8896   34.2646   11.6320 H     327  UNL327      0.0521
   1962 H          13.7621   36.0423   11.0028 H     327  UNL327      0.2090
   1963 O          14.0528   35.0643   14.1583 O.3   328  UNL328     -0.3982
   1964 C          15.4625   35.0643   14.2894 C.3   328  UNL328      0.0330
   1965 H          15.8897   34.2953   13.6410 H     328  UNL328      0.0521
   1966 H          15.7325   34.8696   15.3302 H     328  UNL328      0.0521
   1967 H          15.8469   36.0429   13.9926 H     328  UNL328      0.0521
   1968 H          13.7407   34.1839   14.4286 H     328  UNL328      0.2090
   1969 O          15.6051   35.0640   17.4924 O.3   329  UNL329     -0.3982
   1970 C          14.1893   35.0640   17.4924 C.3   329  UNL329      0.0330
   1971 H          13.8240   34.2950   18.1776 H     329  UNL329      0.0521
   1972 H          13.8241   34.8693   16.4811 H     329  UNL329      0.0521
   1973 H          13.8340   36.0426   17.8236 H     329  UNL329      0.0521
   1974 H          15.8908   34.1836   17.1944 H     329  UNL329      0.2090
@<TRIPOS>BOND
     1     1     2    1
     2     1     6    1
     3     2     3    1
     4     2     4    1
     5     2     5    1
     6     7     8    1
     7     7    12    1
     8     8     9    1
     9     8    10    1
    10     8    11    1
    11    13    14    1
    12    13    18    1
    13    14    15    1
    14    14    16    1
    15    14    17    1
    16    19    20    1
    17    19    24    1
    18    20    21    1
    19    20    22    1
    20    20    23    1
    21    25    26    1
    22    25    30    1
    23    26    27    1
    24    26    28    1
    25    26    29    1
    26    31    32    1
    27    31    36    1
    28    32    33    1
    29    32    34    1
    30    32    35    1
    31    37    38    1
    32    37    42    1
    33    38    39    1
    34    38    40    1
    35    38    41    1
    36    43    44    1
    37    43    48    1
    38    44    45    1
    39    44    46    1
    40    44    47    1
    41    49    50    1
    42    49    54    1
    43    50    51    1
    44    50    52    1
    45    50    53    1
    46    55    56    1
    47    55    60    1
    48    56    57    1
    49    56    58    1
    50    56    59    1
    51    61    62    1
    52    61    66    1
    53    62    63    1
    54    62    64    1
    55    62    65    1
    56    67    68    1
    57    67    72    1
    58    68    69    1
    59    68    70    1
    60    68    71    1
    61    73    74    1
    62    73    78    1
    63    74    75    1
    64    74    76    1
    65    74    77    1
    66    79    80    1
    67    79    84    1
    68    80    81    1
    69    80    82    1
    70    80    83    1
    71    85    86    1
    72    85    90    1
    73    86    87    1
    74    86    88    1
    75    86    89    1
    76    91    92    1
    77    91    96    1
    78    92    93    1
    79    92    94    1
    80    92    95    1
    81    97    98    1
    82    97   102    1
    83    98    99    1
    84    98   100    1
    85    98   101    1
    86   103   104    1
    87   103   108    1
    88   104   105    1
    89   104   106    1
    90   104   107    1
    91   109   110    1
    92   109   114    1
    93   110   111    1
    94   110   112    1
    95   110   113    1
    96   115   116    1
    97   115   120    1
    98   116   117    1
    99   116   118    1
   100   116   119    1
   101   121   122    1
   102   121   126    1
   103   122   123    1
   104   122   124    1
   105   122   125    1
   106   127   128    1
   107   127   132    1
   108   128   129    1
   109   128   130    1
   110   128   131    1
   111   133   134    1
   112   133   138    1
   113   134   135    1
   114   134   136    1
   115   134   137    1
   116   139   140    1
   117   139   144    1
   118   140   141    1
   119   140   142    1
   120   140   143    1
   121   145   146    1
   122   145   150    1
   123   146   147    1
   124   146   148    1
   125   146   149    1
   126   151   152    1
   127   151   156    1
   128   152   153    1
   129   152   154    1
   130   152   155    1
   131   157   158    1
   132   157   162    1
   133   158   159    1
   134   158   160    1
   135   158   161    1
   136   163   164    1
   137   163   168    1
   138   164   165    1
   139   164   166    1
   140   164   167    1
   141   169   170    1
   142   169   174    1
   143   170   171    1
   144   170   172    1
   145   170   173    1
   146   175   176    1
   147   175   180    1
   148   176   177    1
   149   176   178    1
   150   176   179    1
   151   181   182    1
   152   181   186    1
   153   182   183    1
   154   182   184    1
   155   182   185    1
   156   187   188    1
   157   187   192    1
   158   188   189    1
   159   188   190    1
   160   188   191    1
   161   193   194    1
   162   193   198    1
   163   194   195    1
   164   194   196    1
   165   194   197    1
   166   199   200    1
   167   199   204    1
   168   200   201    1
   169   200   202    1
   170   200   203    1
   171   205   206    1
   172   205   210    1
   173   206   207    1
   174   206   208    1
   175   206   209    1
   176   211   212    1
   177   211   216    1
   178   212   213    1
   179   212   214    1
   180   212   215    1
   181   217   218    1
   182   217   222    1
   183   218   219    1
   184   218   220    1
   185   218   221    1
   186   223   224    1
   187   223   228    1
   188   224   225    1
   189   224   226    1
   190   224   227    1
   191   229   230    1
   192   229   234    1
   193   230   231    1
   194   230   232    1
   195   230   233    1
   196   235   236    1
   197   235   240    1
   198   236   237    1
   199   236   238    1
   200   236   239    1
   201   241   242    1
   202   241   246    1
   203   242   243    1
   204   242   244    1
   205   242   245    1
   206   247   248    1
   207   247   252    1
   208   248   249    1
   209   248   250    1
   210   248   251    1
   211   253   254    1
   212   253   258    1
   213   254   255    1
   214   254   256    1
   215   254   257    1
   216   259   260    1
   217   259   264    1
   218   260   261    1
   219   260   262    1
   220   260   263    1
   221   265   266    1
   222   265   270    1
   223   266   267    1
   224   266   268    1
   225   266   269    1
   226   271   272    1
   227   271   276    1
   228   272   273    1
   229   272   274    1
   230   272   275    1
   231   277   278    1
   232   277   282    1
   233   278   279    1
   234   278   280    1
   235   278   281    1
   236   283   284    1
   237   283   288    1
   238   284   285    1
   239   284   286    1
   240   284   287    1
   241   289   290    1
   242   289   294    1
   243   290   291    1
   244   290   292    1
   245   290   293    1
   246   295   296    1
   247   295   300    1
   248   296   297    1
   249   296   298    1
   250   296   299    1
   251   301   302    1
   252   301   306    1
   253   302   303    1
   254   302   304    1
   255   302   305    1
   256   307   308    1
   257   307   312    1
   258   308   309    1
   259   308   310    1
   260   308   311    1
   261   313   314    1
   262   313   318    1
   263   314   315    1
   264   314   316    1
   265   314   317    1
   266   319   320    1
   267   319   324    1
   268   320   321    1
   269   320   322    1
   270   320   323    1
   271   325   326    1
   272   325   330    1
   273   326   327    1
   274   326   328    1
   275   326   329    1
   276   331   332    1
   277   331   336    1
   278   332   333    1
   279   332   334    1
   280   332   335    1
   281   337   338    1
   282   337   342    1
   283   338   339    1
   284   338   340    1
   285   338   341    1
   286   343   344    1
   287   343   348    1
   288   344   345    1
   289   344   346    1
   290   344   347    1
   291   349   350    1
   292   349   354    1
   293   350   351    1
   294   350   352    1
   295   350   353    1
   296   355   356    1
   297   355   360    1
   298   356   357    1
   299   356   358    1
   300   356   359    1
   301   361   362    1
   302   361   366    1
   303   362   363    1
   304   362   364    1
   305   362   365    1
   306   367   368    1
   307   367   372    1
   308   368   369    1
   309   368   370    1
   310   368   371    1
   311   373   374    1
   312   373   378    1
   313   374   375    1
   314   374   376    1
   315   374   377    1
   316   379   380    1
   317   379   384    1
   318   380   381    1
   319   380   382    1
   320   380   383    1
   321   385   386    1
   322   385   390    1
   323   386   387    1
   324   386   388    1
   325   386   389    1
   326   391   392    1
   327   391   396    1
   328   392   393    1
   329   392   394    1
   330   392   395    1
   331   397   398    1
   332   397   402    1
   333   398   399    1
   334   398   400    1
   335   398   401    1
   336   403   404    1
   337   403   408    1
   338   404   405    1
   339   404   406    1
   340   404   407    1
   341   409   410    1
   342   409   414    1
   343   410   411    1
   344   410   412    1
   345   410   413    1
   346   415   416    1
   347   415   420    1
   348   416   417    1
   349   416   418    1
   350   416   419    1
   351   421   422    1
   352   421   426    1
   353   422   423    1
   354   422   424    1
   355   422   425    1
   356   427   428    1
   357   427   432    1
   358   428   429    1
   359   428   430    1
   360   428   431    1
   361   433   434    1
   362   433   438    1
   363   434   435    1
   364   434   436    1
   365   434   437    1
   366   439   440    1
   367   439   444    1
   368   440   441    1
   369   440   442    1
   370   440   443    1
   371   445   446    1
   372   445   450    1
   373   446   447    1
   374   446   448    1
   375   446   449    1
   376   451   452    1
   377   451   456    1
   378   452   453    1
   379   452   454    1
   380   452   455    1
   381   457   458    1
   382   457   462    1
   383   458   459    1
   384   458   460    1
   385   458   461    1
   386   463   464    1
   387   463   468    1
   388   464   465    1
   389   464   466    1
   390   464   467    1
   391   469   470    1
   392   469   474    1
   393   470   471    1
   394   470   472    1
   395   470   473    1
   396   475   476    1
   397   475   480    1
   398   476   477    1
   399   476   478    1
   400   476   479    1
   401   481   482    1
   402   481   486    1
   403   482   483    1
   404   482   484    1
   405   482   485    1
   406   487   488    1
   407   487   492    1
   408   488   489    1
   409   488   490    1
   410   488   491    1
   411   493   494    1
   412   493   498    1
   413   494   495    1
   414   494   496    1
   415   494   497    1
   416   499   500    1
   417   499   504    1
   418   500   501    1
   419   500   502    1
   420   500   503    1
   421   505   506    1
   422   505   510    1
   423   506   507    1
   424   506   508    1
   425   506   509    1
   426   511   512    1
   427   511   516    1
   428   512   513    1
   429   512   514    1
   430   512   515    1
   431   517   518    1
   432   517   522    1
   433   518   519    1
   434   518   520    1
   435   518   521    1
   436   523   524    1
   437   523   528    1
   438   524   525    1
   439   524   526    1
   440   524   527    1
   441   529   530    1
   442   529   534    1
   443   530   531    1
   444   530   532    1
   445   530   533    1
   446   535   536    1
   447   535   540    1
   448   536   537    1
   449   536   538    1
   450   536   539    1
   451   541   542    1
   452   541   546    1
   453   542   543    1
   454   542   544    1
   455   542   545    1
   456   547   548    1
   457   547   552    1
   458   548   549    1
   459   548   550    1
   460   548   551    1
   461   553   554    1
   462   553   558    1
   463   554   555    1
   464   554   556    1
   465   554   557    1
   466   559   560    1
   467   559   564    1
   468   560   561    1
   469   560   562    1
   470   560   563    1
   471   565   566    1
   472   565   570    1
   473   566   567    1
   474   566   568    1
   475   566   569    1
   476   571   572    1
   477   571   576    1
   478   572   573    1
   479   572   574    1
   480   572   575    1
   481   577   578    1
   482   577   582    1
   483   578   579    1
   484   578   580    1
   485   578   581    1
   486   583   584    1
   487   583   588    1
   488   584   585    1
   489   584   586    1
   490   584   587    1
   491   589   590    1
   492   589   594    1
   493   590   591    1
   494   590   592    1
   495   590   593    1
   496   595   596    1
   497   595   600    1
   498   596   597    1
   499   596   598    1
   500   596   599    1
   501   601   602    1
   502   601   606    1
   503   602   603    1
   504   602   604    1
   505   602   605    1
   506   607   608    1
   507   607   612    1
   508   608   609    1
   509   608   610    1
   510   608   611    1
   511   613   614    1
   512   613   618    1
   513   614   615    1
   514   614   616    1
   515   614   617    1
   516   619   620    1
   517   619   624    1
   518   620   621    1
   519   620   622    1
   520   620   623    1
   521   625   626    1
   522   625   630    1
   523   626   627    1
   524   626   628    1
   525   626   629    1
   526   631   632    1
   527   631   636    1
   528   632   633    1
   529   632   634    1
   530   632   635    1
   531   637   638    1
   532   637   642    1
   533   638   639    1
   534   638   640    1
   535   638   641    1
   536   643   644    1
   537   643   648    1
   538   644   645    1
   539   644   646    1
   540   644   647    1
   541   649   650    1
   542   649   654    1
   543   650   651    1
   544   650   652    1
   545   650   653    1
   546   655   656    1
   547   655   660    1
   548   656   657    1
   549   656   658    1
   550   656   659    1
   551   661   662    1
   552   661   666    1
   553   662   663    1
   554   662   664    1
   555   662   665    1
   556   667   668    1
   557   667   672    1
   558   668   669    1
   559   668   670    1
   560   668   671    1
   561   673   674    1
   562   673   678    1
   563   674   675    1
   564   674   676    1
   565   674   677    1
   566   679   680    1
   567   679   684    1
   568   680   681    1
   569   680   682    1
   570   680   683    1
   571   685   686    1
   572   685   690    1
   573   686   687    1
   574   686   688    1
   575   686   689    1
   576   691   692    1
   577   691   696    1
   578   692   693    1
   579   692   694    1
   580   692   695    1
   581   697   698    1
   582   697   702    1
   583   698   699    1
   584   698   700    1
   585   698   701    1
   586   703   704    1
   587   703   708    1
   588   704   705    1
   589   704   706    1
   590   704   707    1
   591   709   710    1
   592   709   714    1
   593   710   711    1
   594   710   712    1
   595   710   713    1
   596   715   716    1
   597   715   720    1
   598   716   717    1
   599   716   718    1
   600   716   719    1
   601   721   722    1
   602   721   726    1
   603   722   723    1
   604   722   724    1
   605   722   725    1
   606   727   728    1
   607   727   732    1
   608   728   729    1
   609   728   730    1
   610   728   731    1
   611   733   734    1
   612   733   738    1
   613   734   735    1
   614   734   736    1
   615   734   737    1
   616   739   740    1
   617   739   744    1
   618   740   741    1
   619   740   742    1
   620   740   743    1
   621   745   746    1
   622   745   750    1
   623   746   747    1
   624   746   748    1
   625   746   749    1
   626   751   752    1
   627   751   756    1
   628   752   753    1
   629   752   754    1
   630   752   755    1
   631   757   758    1
   632   757   762    1
   633   758   759    1
   634   758   760    1
   635   758   761    1
   636   763   764    1
   637   763   768    1
   638   764   765    1
   639   764   766    1
   640   764   767    1
   641   769   770    1
   642   769   774    1
   643   770   771    1
   644   770   772    1
   645   770   773    1
   646   775   776    1
   647   775   780    1
   648   776   777    1
   649   776   778    1
   650   776   779    1
   651   781   782    1
   652   781   786    1
   653   782   783    1
   654   782   784    1
   655   782   785    1
   656   787   788    1
   657   787   792    1
   658   788   789    1
   659   788   790    1
   660   788   791    1
   661   793   794    1
   662   793   798    1
   663   794   795    1
   664   794   796    1
   665   794   797    1
   666   799   800    1
   667   799   804    1
   668   800   801    1
   669   800   802    1
   670   800   803    1
   671   805   806    1
   672   805   810    1
   673   806   807    1
   674   806   808    1
   675   806   809    1
   676   811   812    1
   677   811   816    1
   678   812   813    1
   679   812   814    1
   680   812   815    1
   681   817   818    1
   682   817   822    1
   683   818   819    1
   684   818   820    1
   685   818   821    1
   686   823   824    1
   687   823   828    1
   688   824   825    1
   689   824   826    1
   690   824   827    1
   691   829   830    1
   692   829   834    1
   693   830   831    1
   694   830   832    1
   695   830   833    1
   696   835   836    1
   697   835   840    1
   698   836   837    1
   699   836   838    1
   700   836   839    1
   701   841   842    1
   702   841   846    1
   703   842   843    1
   704   842   844    1
   705   842   845    1
   706   847   848    1
   707   847   852    1
   708   848   849    1
   709   848   850    1
   710   848   851    1
   711   853   854    1
   712   853   858    1
   713   854   855    1
   714   854   856    1
   715   854   857    1
   716   859   860    1
   717   859   864    1
   718   860   861    1
   719   860   862    1
   720   860   863    1
   721   865   866    1
   722   865   870    1
   723   866   867    1
   724   866   868    1
   725   866   869    1
   726   871   872    1
   727   871   876    1
   728   872   873    1
   729   872   874    1
   730   872   875    1
   731   877   878    1
   732   877   882    1
   733   878   879    1
   734   878   880    1
   735   878   881    1
   736   883   884    1
   737   883   888    1
   738   884   885    1
   739   884   886    1
   740   884   887    1
   741   889   890    1
   742   889   894    1
   743   890   891    1
   744   890   892    1
   745   890   893    1
   746   895   896    1
   747   895   900    1
   748   896   897    1
   749   896   898    1
   750   896   899    1
   751   901   902    1
   752   901   906    1
   753   902   903    1
   754   902   904    1
   755   902   905    1
   756   907   908    1
   757   907   912    1
   758   908   909    1
   759   908   910    1
   760   908   911    1
   761   913   914    1
   762   913   918    1
   763   914   915    1
   764   914   916    1
   765   914   917    1
   766   919   920    1
   767   919   924    1
   768   920   921    1
   769   920   922    1
   770   920   923    1
   771   925   926    1
   772   925   930    1
   773   926   927    1
   774   926   928    1
   775   926   929    1
   776   931   932    1
   777   931   936    1
   778   932   933    1
   779   932   934    1
   780   932   935    1
   781   937   938    1
   782   937   942    1
   783   938   939    1
   784   938   940    1
   785   938   941    1
   786   943   944    1
   787   943   948    1
   788   944   945    1
   789   944   946    1
   790   944   947    1
   791   949   950    1
   792   949   954    1
   793   950   951    1
   794   950   952    1
   795   950   953    1
   796   955   956    1
   797   955   960    1
   798   956   957    1
   799   956   958    1
   800   956   959    1
   801   961   962    1
   802   961   966    1
   803   962   963    1
   804   962   964    1
   805   962   965    1
   806   967   968    1
   807   967   972    1
   808   968   969    1
   809   968   970    1
   810   968   971    1
   811   973   974    1
   812   973   978    1
   813   974   975    1
   814   974   976    1
   815   974   977    1
   816   979   980    1
   817   979   984    1
   818   980   981    1
   819   980   982    1
   820   980   983    1
   821   985   986    1
   822   985   990    1
   823   986   987    1
   824   986   988    1
   825   986   989    1
   826   991   992    1
   827   991   996    1
   828   992   993    1
   829   992   994    1
   830   992   995    1
   831   997   998    1
   832   997  1002    1
   833   998   999    1
   834   998  1000    1
   835   998  1001    1
   836  1003  1004    1
   837  1003  1008    1
   838  1004  1005    1
   839  1004  1006    1
   840  1004  1007    1
   841  1009  1010    1
   842  1009  1014    1
   843  1010  1011    1
   844  1010  1012    1
   845  1010  1013    1
   846  1015  1016    1
   847  1015  1020    1
   848  1016  1017    1
   849  1016  1018    1
   850  1016  1019    1
   851  1021  1022    1
   852  1021  1026    1
   853  1022  1023    1
   854  1022  1024    1
   855  1022  1025    1
   856  1027  1028    1
   857  1027  1032    1
   858  1028  1029    1
   859  1028  1030    1
   860  1028  1031    1
   861  1033  1034    1
   862  1033  1038    1
   863  1034  1035    1
   864  1034  1036    1
   865  1034  1037    1
   866  1039  1040    1
   867  1039  1044    1
   868  1040  1041    1
   869  1040  1042    1
   870  1040  1043    1
   871  1045  1046    1
   872  1045  1050    1
   873  1046  1047    1
   874  1046  1048    1
   875  1046  1049    1
   876  1051  1052    1
   877  1051  1056    1
   878  1052  1053    1
   879  1052  1054    1
   880  1052  1055    1
   881  1057  1058    1
   882  1057  1062    1
   883  1058  1059    1
   884  1058  1060    1
   885  1058  1061    1
   886  1063  1064    1
   887  1063  1068    1
   888  1064  1065    1
   889  1064  1066    1
   890  1064  1067    1
   891  1069  1070    1
   892  1069  1074    1
   893  1070  1071    1
   894  1070  1072    1
   895  1070  1073    1
   896  1075  1076    1
   897  1075  1080    1
   898  1076  1077    1
   899  1076  1078    1
   900  1076  1079    1
   901  1081  1082    1
   902  1081  1086    1
   903  1082  1083    1
   904  1082  1084    1
   905  1082  1085    1
   906  1087  1088    1
   907  1087  1092    1
   908  1088  1089    1
   909  1088  1090    1
   910  1088  1091    1
   911  1093  1094    1
   912  1093  1098    1
   913  1094  1095    1
   914  1094  1096    1
   915  1094  1097    1
   916  1099  1100    1
   917  1099  1104    1
   918  1100  1101    1
   919  1100  1102    1
   920  1100  1103    1
   921  1105  1106    1
   922  1105  1110    1
   923  1106  1107    1
   924  1106  1108    1
   925  1106  1109    1
   926  1111  1112    1
   927  1111  1116    1
   928  1112  1113    1
   929  1112  1114    1
   930  1112  1115    1
   931  1117  1118    1
   932  1117  1122    1
   933  1118  1119    1
   934  1118  1120    1
   935  1118  1121    1
   936  1123  1124    1
   937  1123  1128    1
   938  1124  1125    1
   939  1124  1126    1
   940  1124  1127    1
   941  1129  1130    1
   942  1129  1134    1
   943  1130  1131    1
   944  1130  1132    1
   945  1130  1133    1
   946  1135  1136    1
   947  1135  1140    1
   948  1136  1137    1
   949  1136  1138    1
   950  1136  1139    1
   951  1141  1142    1
   952  1141  1146    1
   953  1142  1143    1
   954  1142  1144    1
   955  1142  1145    1
   956  1147  1148    1
   957  1147  1152    1
   958  1148  1149    1
   959  1148  1150    1
   960  1148  1151    1
   961  1153  1154    1
   962  1153  1158    1
   963  1154  1155    1
   964  1154  1156    1
   965  1154  1157    1
   966  1159  1160    1
   967  1159  1164    1
   968  1160  1161    1
   969  1160  1162    1
   970  1160  1163    1
   971  1165  1166    1
   972  1165  1170    1
   973  1166  1167    1
   974  1166  1168    1
   975  1166  1169    1
   976  1171  1172    1
   977  1171  1176    1
   978  1172  1173    1
   979  1172  1174    1
   980  1172  1175    1
   981  1177  1178    1
   982  1177  1182    1
   983  1178  1179    1
   984  1178  1180    1
   985  1178  1181    1
   986  1183  1184    1
   987  1183  1188    1
   988  1184  1185    1
   989  1184  1186    1
   990  1184  1187    1
   991  1189  1190    1
   992  1189  1194    1
   993  1190  1191    1
   994  1190  1192    1
   995  1190  1193    1
   996  1195  1196    1
   997  1195  1200    1
   998  1196  1197    1
   999  1196  1198    1
  1000  1196  1199    1
  1001  1201  1202    1
  1002  1201  1206    1
  1003  1202  1203    1
  1004  1202  1204    1
  1005  1202  1205    1
  1006  1207  1208    1
  1007  1207  1212    1
  1008  1208  1209    1
  1009  1208  1210    1
  1010  1208  1211    1
  1011  1213  1214    1
  1012  1213  1218    1
  1013  1214  1215    1
  1014  1214  1216    1
  1015  1214  1217    1
  1016  1219  1220    1
  1017  1219  1224    1
  1018  1220  1221    1
  1019  1220  1222    1
  1020  1220  1223    1
  1021  1225  1226    1
  1022  1225  1230    1
  1023  1226  1227    1
  1024  1226  1228    1
  1025  1226  1229    1
  1026  1231  1232    1
  1027  1231  1236    1
  1028  1232  1233    1
  1029  1232  1234    1
  1030  1232  1235    1
  1031  1237  1238    1
  1032  1237  1242    1
  1033  1238  1239    1
  1034  1238  1240    1
  1035  1238  1241    1
  1036  1243  1244    1
  1037  1243  1248    1
  1038  1244  1245    1
  1039  1244  1246    1
  1040  1244  1247    1
  1041  1249  1250    1
  1042  1249  1254    1
  1043  1250  1251    1
  1044  1250  1252    1
  1045  1250  1253    1
  1046  1255  1256    1
  1047  1255  1260    1
  1048  1256  1257    1
  1049  1256  1258    1
  1050  1256  1259    1
  1051  1261  1262    1
  1052  1261  1266    1
  1053  1262  1263    1
  1054  1262  1264    1
  1055  1262  1265    1
  1056  1267  1268    1
  1057  1267  1272    1
  1058  1268  1269    1
  1059  1268  1270    1
  1060  1268  1271    1
  1061  1273  1274    1
  1062  1273  1278    1
  1063  1274  1275    1
  1064  1274  1276    1
  1065  1274  1277    1
  1066  1279  1280    1
  1067  1279  1284    1
  1068  1280  1281    1
  1069  1280  1282    1
  1070  1280  1283    1
  1071  1285  1286    1
  1072  1285  1290    1
  1073  1286  1287    1
  1074  1286  1288    1
  1075  1286  1289    1
  1076  1291  1292    1
  1077  1291  1296    1
  1078  1292  1293    1
  1079  1292  1294    1
  1080  1292  1295    1
  1081  1297  1298    1
  1082  1297  1302    1
  1083  1298  1299    1
  1084  1298  1300    1
  1085  1298  1301    1
  1086  1303  1304    1
  1087  1303  1308    1
  1088  1304  1305    1
  1089  1304  1306    1
  1090  1304  1307    1
  1091  1309  1310    1
  1092  1309  1314    1
  1093  1310  1311    1
  1094  1310  1312    1
  1095  1310  1313    1
  1096  1315  1316    1
  1097  1315  1320    1
  1098  1316  1317    1
  1099  1316  1318    1
  1100  1316  1319    1
  1101  1321  1322    1
  1102  1321  1326    1
  1103  1322  1323    1
  1104  1322  1324    1
  1105  1322  1325    1
  1106  1327  1328    1
  1107  1327  1332    1
  1108  1328  1329    1
  1109  1328  1330    1
  1110  1328  1331    1
  1111  1333  1334    1
  1112  1333  1338    1
  1113  1334  1335    1
  1114  1334  1336    1
  1115  1334  1337    1
  1116  1339  1340    1
  1117  1339  1344    1
  1118  1340  1341    1
  1119  1340  1342    1
  1120  1340  1343    1
  1121  1345  1346    1
  1122  1345  1350    1
  1123  1346  1347    1
  1124  1346  1348    1
  1125  1346  1349    1
  1126  1351  1352    1
  1127  1351  1356    1
  1128  1352  1353    1
  1129  1352  1354    1
  1130  1352  1355    1
  1131  1357  1358    1
  1132  1357  1362    1
  1133  1358  1359    1
  1134  1358  1360    1
  1135  1358  1361    1
  1136  1363  1364    1
  1137  1363  1368    1
  1138  1364  1365    1
  1139  1364  1366    1
  1140  1364  1367    1
  1141  1369  1370    1
  1142  1369  1374    1
  1143  1370  1371    1
  1144  1370  1372    1
  1145  1370  1373    1
  1146  1375  1376    1
  1147  1375  1380    1
  1148  1376  1377    1
  1149  1376  1378    1
  1150  1376  1379    1
  1151  1381  1382    1
  1152  1381  1386    1
  1153  1382  1383    1
  1154  1382  1384    1
  1155  1382  1385    1
  1156  1387  1388    1
  1157  1387  1392    1
  1158  1388  1389    1
  1159  1388  1390    1
  1160  1388  1391    1
  1161  1393  1394    1
  1162  1393  1398    1
  1163  1394  1395    1
  1164  1394  1396    1
  1165  1394  1397    1
  1166  1399  1400    1
  1167  1399  1404    1
  1168  1400  1401    1
  1169  1400  1402    1
  1170  1400  1403    1
  1171  1405  1406    1
  1172  1405  1410    1
  1173  1406  1407    1
  1174  1406  1408    1
  1175  1406  1409    1
  1176  1411  1412    1
  1177  1411  1416    1
  1178  1412  1413    1
  1179  1412  1414    1
  1180  1412  1415    1
  1181  1417  1418    1
  1182  1417  1422    1
  1183  1418  1419    1
  1184  1418  1420    1
  1185  1418  1421    1
  1186  1423  1424    1
  1187  1423  1428    1
  1188  1424  1425    1
  1189  1424  1426    1
  1190  1424  1427    1
  1191  1429  1430    1
  1192  1429  1434    1
  1193  1430  1431    1
  1194  1430  1432    1
  1195  1430  1433    1
  1196  1435  1436    1
  1197  1435  1440    1
  1198  1436  1437    1
  1199  1436  1438    1
  1200  1436  1439    1
  1201  1441  1442    1
  1202  1441  1446    1
  1203  1442  1443    1
  1204  1442  1444    1
  1205  1442  1445    1
  1206  1447  1448    1
  1207  1447  1452    1
  1208  1448  1449    1
  1209  1448  1450    1
  1210  1448  1451    1
  1211  1453  1454    1
  1212  1453  1458    1
  1213  1454  1455    1
  1214  1454  1456    1
  1215  1454  1457    1
  1216  1459  1460    1
  1217  1459  1464    1
  1218  1460  1461    1
  1219  1460  1462    1
  1220  1460  1463    1
  1221  1465  1466    1
  1222  1465  1470    1
  1223  1466  1467    1
  1224  1466  1468    1
  1225  1466  1469    1
  1226  1471  1472    1
  1227  1471  1476    1
  1228  1472  1473    1
  1229  1472  1474    1
  1230  1472  1475    1
  1231  1477  1478    1
  1232  1477  1482    1
  1233  1478  1479    1
  1234  1478  1480    1
  1235  1478  1481    1
  1236  1483  1484    1
  1237  1483  1488    1
  1238  1484  1485    1
  1239  1484  1486    1
  1240  1484  1487    1
  1241  1489  1490    1
  1242  1489  1494    1
  1243  1490  1491    1
  1244  1490  1492    1
  1245  1490  1493    1
  1246  1495  1496    1
  1247  1495  1500    1
  1248  1496  1497    1
  1249  1496  1498    1
  1250  1496  1499    1
  1251  1501  1502    1
  1252  1501  1506    1
  1253  1502  1503    1
  1254  1502  1504    1
  1255  1502  1505    1
  1256  1507  1508    1
  1257  1507  1512    1
  1258  1508  1509    1
  1259  1508  1510    1
  1260  1508  1511    1
  1261  1513  1514    1
  1262  1513  1518    1
  1263  1514  1515    1
  1264  1514  1516    1
  1265  1514  1517    1
  1266  1519  1520    1
  1267  1519  1524    1
  1268  1520  1521    1
  1269  1520  1522    1
  1270  1520  1523    1
  1271  1525  1526    1
  1272  1525  1530    1
  1273  1526  1527    1
  1274  1526  1528    1
  1275  1526  1529    1
  1276  1531  1532    1
  1277  1531  1536    1
  1278  1532  1533    1
  1279  1532  1534    1
  1280  1532  1535    1
  1281  1537  1538    1
  1282  1537  1542    1
  1283  1538  1539    1
  1284  1538  1540    1
  1285  1538  1541    1
  1286  1543  1544    1
  1287  1543  1548    1
  1288  1544  1545    1
  1289  1544  1546    1
  1290  1544  1547    1
  1291  1549  1550    1
  1292  1549  1554    1
  1293  1550  1551    1
  1294  1550  1552    1
  1295  1550  1553    1
  1296  1555  1556    1
  1297  1555  1560    1
  1298  1556  1557    1
  1299  1556  1558    1
  1300  1556  1559    1
  1301  1561  1562    1
  1302  1561  1566    1
  1303  1562  1563    1
  1304  1562  1564    1
  1305  1562  1565    1
  1306  1567  1568    1
  1307  1567  1572    1
  1308  1568  1569    1
  1309  1568  1570    1
  1310  1568  1571    1
  1311  1573  1574    1
  1312  1573  1578    1
  1313  1574  1575    1
  1314  1574  1576    1
  1315  1574  1577    1
  1316  1579  1580    1
  1317  1579  1584    1
  1318  1580  1581    1
  1319  1580  1582    1
  1320  1580  1583    1
  1321  1585  1586    1
  1322  1585  1590    1
  1323  1586  1587    1
  1324  1586  1588    1
  1325  1586  1589    1
  1326  1591  1592    1
  1327  1591  1596    1
  1328  1592  1593    1
  1329  1592  1594    1
  1330  1592  1595    1
  1331  1597  1598    1
  1332  1597  1602    1
  1333  1598  1599    1
  1334  1598  1600    1
  1335  1598  1601    1
  1336  1603  1604    1
  1337  1603  1608    1
  1338  1604  1605    1
  1339  1604  1606    1
  1340  1604  1607    1
  1341  1609  1610    1
  1342  1609  1614    1
  1343  1610  1611    1
  1344  1610  1612    1
  1345  1610  1613    1
  1346  1615  1616    1
  1347  1615  1620    1
  1348  1616  1617    1
  1349  1616  1618    1
  1350  1616  1619    1
  1351  1621  1622    1
  1352  1621  1626    1
  1353  1622  1623    1
  1354  1622  1624    1
  1355  1622  1625    1
  1356  1627  1628    1
  1357  1627  1632    1
  1358  1628  1629    1
  1359  1628  1630    1
  1360  1628  1631    1
  1361  1633  1634    1
  1362  1633  1638    1
  1363  1634  1635    1
  1364  1634  1636    1
  1365  1634  1637    1
  1366  1639  1640    1
  1367  1639  1644    1
  1368  1640  1641    1
  1369  1640  1642    1
  1370  1640  1643    1
  1371  1645  1646    1
  1372  1645  1650    1
  1373  1646  1647    1
  1374  1646  1648    1
  1375  1646  1649    1
  1376  1651  1652    1
  1377  1651  1656    1
  1378  1652  1653    1
  1379  1652  1654    1
  1380  1652  1655    1
  1381  1657  1658    1
  1382  1657  1662    1
  1383  1658  1659    1
  1384  1658  1660    1
  1385  1658  1661    1
  1386  1663  1664    1
  1387  1663  1668    1
  1388  1664  1665    1
  1389  1664  1666    1
  1390  1664  1667    1
  1391  1669  1670    1
  1392  1669  1674    1
  1393  1670  1671    1
  1394  1670  1672    1
  1395  1670  1673    1
  1396  1675  1676    1
  1397  1675  1680    1
  1398  1676  1677    1
  1399  1676  1678    1
  1400  1676  1679    1
  1401  1681  1682    1
  1402  1681  1686    1
  1403  1682  1683    1
  1404  1682  1684    1
  1405  1682  1685    1
  1406  1687  1688    1
  1407  1687  1692    1
  1408  1688  1689    1
  1409  1688  1690    1
  1410  1688  1691    1
  1411  1693  1694    1
  1412  1693  1698    1
  1413  1694  1695    1
  1414  1694  1696    1
  1415  1694  1697    1
  1416  1699  1700    1
  1417  1699  1704    1
  1418  1700  1701    1
  1419  1700  1702    1
  1420  1700  1703    1
  1421  1705  1706    1
  1422  1705  1710    1
  1423  1706  1707    1
  1424  1706  1708    1
  1425  1706  1709    1
  1426  1711  1712    1
  1427  1711  1716    1
  1428  1712  1713    1
  1429  1712  1714    1
  1430  1712  1715    1
  1431  1717  1718    1
  1432  1717  1722    1
  1433  1718  1719    1
  1434  1718  1720    1
  1435  1718  1721    1
  1436  1723  1724    1
  1437  1723  1728    1
  1438  1724  1725    1
  1439  1724  1726    1
  1440  1724  1727    1
  1441  1729  1730    1
  1442  1729  1734    1
  1443  1730  1731    1
  1444  1730  1732    1
  1445  1730  1733    1
  1446  1735  1736    1
  1447  1735  1740    1
  1448  1736  1737    1
  1449  1736  1738    1
  1450  1736  1739    1
  1451  1741  1742    1
  1452  1741  1746    1
  1453  1742  1743    1
  1454  1742  1744    1
  1455  1742  1745    1
  1456  1747  1748    1
  1457  1747  1752    1
  1458  1748  1749    1
  1459  1748  1750    1
  1460  1748  1751    1
  1461  1753  1754    1
  1462  1753  1758    1
  1463  1754  1755    1
  1464  1754  1756    1
  1465  1754  1757    1
  1466  1759  1760    1
  1467  1759  1764    1
  1468  1760  1761    1
  1469  1760  1762    1
  1470  1760  1763    1
  1471  1765  1766    1
  1472  1765  1770    1
  1473  1766  1767    1
  1474  1766  1768    1
  1475  1766  1769    1
  1476  1771  1772    1
  1477  1771  1776    1
  1478  1772  1773    1
  1479  1772  1774    1
  1480  1772  1775    1
  1481  1777  1778    1
  1482  1777  1782    1
  1483  1778  1779    1
  1484  1778  1780    1
  1485  1778  1781    1
  1486  1783  1784    1
  1487  1783  1788    1
  1488  1784  1785    1
  1489  1784  1786    1
  1490  1784  1787    1
  1491  1789  1790    1
  1492  1789  1794    1
  1493  1790  1791    1
  1494  1790  1792    1
  1495  1790  1793    1
  1496  1795  1796    1
  1497  1795  1800    1
  1498  1796  1797    1
  1499  1796  1798    1
  1500  1796  1799    1
  1501  1801  1802    1
  1502  1801  1806    1
  1503  1802  1803    1
  1504  1802  1804    1
  1505  1802  1805    1
  1506  1807  1808    1
  1507  1807  1812    1
  1508  1808  1809    1
  1509  1808  1810    1
  1510  1808  1811    1
  1511  1813  1814    1
  1512  1813  1818    1
  1513  1814  1815    1
  1514  1814  1816    1
  1515  1814  1817    1
  1516  1819  1820    1
  1517  1819  1824    1
  1518  1820  1821    1
  1519  1820  1822    1
  1520  1820  1823    1
  1521  1825  1826    1
  1522  1825  1830    1
  1523  1826  1827    1
  1524  1826  1828    1
  1525  1826  1829    1
  1526  1831  1832    1
  1527  1831  1836    1
  1528  1832  1833    1
  1529  1832  1834    1
  1530  1832  1835    1
  1531  1837  1838    1
  1532  1837  1842    1
  1533  1838  1839    1
  1534  1838  1840    1
  1535  1838  1841    1
  1536  1843  1844    1
  1537  1843  1848    1
  1538  1844  1845    1
  1539  1844  1846    1
  1540  1844  1847    1
  1541  1849  1850    1
  1542  1849  1854    1
  1543  1850  1851    1
  1544  1850  1852    1
  1545  1850  1853    1
  1546  1855  1856    1
  1547  1855  1860    1
  1548  1856  1857    1
  1549  1856  1858    1
  1550  1856  1859    1
  1551  1861  1862    1
  1552  1861  1866    1
  1553  1862  1863    1
  1554  1862  1864    1
  1555  1862  1865    1
  1556  1867  1868    1
  1557  1867  1872    1
  1558  1868  1869    1
  1559  1868  1870    1
  1560  1868  1871    1
  1561  1873  1874    1
  1562  1873  1878    1
  1563  1874  1875    1
  1564  1874  1876    1
  1565  1874  1877    1
  1566  1879  1880    1
  1567  1879  1884    1
  1568  1880  1881    1
  1569  1880  1882    1
  1570  1880  1883    1
  1571  1885  1886    1
  1572  1885  1890    1
  1573  1886  1887    1
  1574  1886  1888    1
  1575  1886  1889    1
  1576  1891  1892    1
  1577  1891  1896    1
  1578  1892  1893    1
  1579  1892  1894    1
  1580  1892  1895    1
  1581  1897  1898    1
  1582  1897  1902    1
  1583  1898  1899    1
  1584  1898  1900    1
  1585  1898  1901    1
  1586  1903  1904    1
  1587  1903  1908    1
  1588  1904  1905    1
  1589  1904  1906    1
  1590  1904  1907    1
  1591  1909  1910    1
  1592  1909  1914    1
  1593  1910  1911    1
  1594  1910  1912    1
  1595  1910  1913    1
  1596  1915  1916    1
  1597  1915  1920    1
  1598  1916  1917    1
  1599  1916  1918    1
  1600  1916  1919    1
  1601  1921  1922    1
  1602  1921  1926    1
  1603  1922  1923    1
  1604  1922  1924    1
  1605  1922  1925    1
  1606  1927  1928    1
  1607  1927  1932    1
  1608  1928  1929    1
  1609  1928  1930    1
  1610  1928  1931    1
  1611  1933  1934    1
  1612  1933  1938    1
  1613  1934  1935    1
  1614  1934  1936    1
  1615  1934  1937    1
  1616  1939  1940    1
  1617  1939  1944    1
  1618  1940  1941    1
  1619  1940  1942    1
  1620  1940  1943    1
  1621  1945  1946    1
  1622  1945  1950    1
  1623  1946  1947    1
  1624  1946  1948    1
  1625  1946  1949    1
  1626  1951  1952    1
  1627  1951  1956    1
  1628  1952  1953    1
  1629  1952  1954    1
  1630  1952  1955    1
  1631  1957  1958    1
  1632  1957  1962    1
  1633  1958  1959    1
  1634  1958  1960    1
  1635  1958  1961    1
  1636  1963  1964    1
  1637  1963  1968    1
  1638  1964  1965    1
  1639  1964  1966    1
  1640  1964  1967    1
  1641  1969  1970    1
  1642  1969  1974    1
  1643  1970  1971    1
  1644  1970  1972    1
  1645  1970  1973    1
