@<TRIPOS>MOLECULE
*****
 6 5 0 0 0
SMALL
GASTEIGER

@<TRIPOS>ATOM
      1 O           5.9535   -0.6684   -0.8359 O.3     1  UNL1       -0.3982
      2 C           7.1128   -0.1124   -0.2431 C.3     1  UNL1        0.0330
      3 H           7.4351    0.7591   -0.8182 H       1  UNL1        0.0521
      4 H           7.9074   -0.8623   -0.2216 H       1  UNL1        0.0521
      5 H           6.8770    0.1948    0.7785 H       1  UNL1        0.0521
      6 H           6.1934   -0.9314   -1.7407 H       1  UNL1        0.2090
@<TRIPOS>BOND
     1     1     2    1
     2     1     6    1
     3     2     3    1
     4     2     4    1
     5     2     5    1
