@<TRIPOS>MOLECULE
*****
 42 35 0 0 0
SMALL
GASTEIGER

@<TRIPOS>ATOM
      1 O           1.3560    8.7238   21.9239 O.3     1  UNL1       -0.3982
      2 C          -0.0598    8.7238   21.9239 C.3     1  UNL1        0.0330
      3 H          -0.4251    7.9548   22.6091 H       1  UNL1        0.0521
      4 H          -0.4250    8.5291   20.9126 H       1  UNL1        0.0521
      5 H          -0.4151    9.7024   22.2551 H       1  UNL1        0.0521
      6 H           1.6417    7.8434   21.6259 H       1  UNL1        0.2090
      7 O           1.3560   12.2495   15.1364 O.3     2  UNL2       -0.3982
      8 C          -0.0598   12.2495   15.1364 C.3     2  UNL2        0.0330
      9 H          -0.4251   13.2585   14.9296 H       2  UNL2        0.0521
     10 H          -0.4250   11.9104   16.1088 H       2  UNL2        0.0521
     11 H          -0.4151   11.5692   14.3588 H       2  UNL2        0.0521
     12 H           1.6417   12.8615   15.8359 H       2  UNL2        0.2090
     13 O           0.7909   14.5860   -0.9595 O.3     3  UNL3       -0.3982
     14 C           0.0984   15.7925   -1.2224 C.3     3  UNL3        0.0330
     15 H          -0.8070   15.5767   -1.7950 H       3  UNL3        0.0521
     16 H           0.7455   16.4698   -1.7850 H       3  UNL3        0.0521
     17 H          -0.1759   16.2588   -0.2732 H       3  UNL3        0.0521
     18 H           1.0211   14.1954   -1.8197 H       3  UNL3        0.2090
     19 O           0.7373   16.7832    8.7076 O.3     4  UNL4       -0.3982
     20 C           0.0448   15.5766    8.4447 C.3     4  UNL4        0.0330
     21 H          -0.5750   15.3160    9.3062 H       4  UNL4        0.0521
     22 H           0.7642   14.7787    8.2451 H       4  UNL4        0.0521
     23 H          -0.5930   15.7166    7.5688 H       4  UNL4        0.0521
     24 H           1.2945   16.6283    9.4893 H       4  UNL4        0.2090
     25 O           0.7373   16.7832   18.6437 O.3     5  UNL5       -0.3982
     26 C           0.0448   15.5766   18.3807 C.3     5  UNL5        0.0330
     27 H          -0.5750   15.3160   19.2423 H       5  UNL5        0.0521
     28 H           0.7642   14.7787   18.1812 H       5  UNL5        0.0521
     29 H          -0.5930   15.7166   17.5048 H       5  UNL5        0.0521
     30 H           1.2945   16.6283   19.4254 H       5  UNL5        0.2090
     31 O           0.7909   18.0361   -0.9595 O.3     6  UNL6       -0.3982
     32 C           0.0984   19.2427   -1.2224 C.3     6  UNL6        0.0330
     33 H          -0.8070   19.0269   -1.7950 H       6  UNL6        0.0521
     34 H           0.7455   19.9200   -1.7850 H       6  UNL6        0.0521
     35 H          -0.1759   19.7090   -0.2732 H       6  UNL6        0.0521
     36 H           1.0211   17.6455   -1.8197 H       6  UNL6        0.2090
     37 O          -0.1404   23.5429    2.3717 O.3     7  UNL7       -0.3982
     38 C           0.2275   22.1758    2.3717 C.3     7  UNL7        0.0330
     39 H           1.0650   22.0228    3.0569 H       7  UNL7        0.0521
     40 H           0.5104   21.8737    1.3604 H       7  UNL7        0.0521
     41 H          -0.6252   21.5784    2.7029 H       7  UNL7        0.0521
     42 H           0.6356   24.0476    2.0737 H       7  UNL7        0.2090
@<TRIPOS>BOND
     1     1     2    1
     2     1     6    1
     3     2     3    1
     4     2     4    1
     5     2     5    1
     6     7     8    1
     7     7    12    1
     8     8     9    1
     9     8    10    1
    10     8    11    1
    11    13    14    1
    12    13    18    1
    13    14    15    1
    14    14    16    1
    15    14    17    1
    16    19    20    1
    17    19    24    1
    18    20    21    1
    19    20    22    1
    20    20    23    1
    21    25    26    1
    22    25    30    1
    23    26    27    1
    24    26    28    1
    25    26    29    1
    26    31    32    1
    27    31    36    1
    28    32    33    1
    29    32    34    1
    30    32    35    1
    31    37    38    1
    32    37    42    1
    33    38    39    1
    34    38    40    1
    35    38    41    1
