@<TRIPOS>MOLECULE
*****
 5760 4800 0 0 0
SMALL
GASTEIGER

@<TRIPOS>ATOM
      1 O          -0.0626   -1.0995   -2.0601 O.3     1  UNL1       -0.3982
      2 C           0.7847   -1.0995   -0.9258 C.3     1  UNL1        0.0330
      3 H           1.5523   -1.8685   -1.0432 H       1  UNL1        0.0521
      4 H           0.1931   -1.2942   -0.0280 H       1  UNL1        0.0521
      5 H           1.2627   -0.1209   -0.8394 H       1  UNL1        0.0521
      6 H          -0.4723   -1.9799   -2.1106 H       1  UNL1        0.2090
      7 O          -2.2973   -1.1353    3.1394 O.3     2  UNL2       -0.3982
      8 C          -1.9328   -1.1115    1.7716 C.3     2  UNL2        0.0330
      9 H          -2.4076   -1.9479    1.2525 H       2  UNL2        0.0521
     10 H          -0.8461   -1.1828    1.6819 H       2  UNL2        0.0521
     11 H          -2.2718   -0.1716    1.3298 H       2  UNL2        0.0521
     12 H          -1.9835   -1.9803    3.5041 H       2  UNL2        0.2090
     13 O           0.4331    0.7251    3.8858 O.3     3  UNL3       -0.3982
     14 C          -0.2154    0.0786    4.9656 C.3     3  UNL3        0.0330
     15 H          -0.2701   -0.9950    4.7689 H       3  UNL3        0.0521
     16 H          -1.2206    0.4894    5.0867 H       3  UNL3        0.0521
     17 H           0.3587    0.2505    5.8791 H       3  UNL3        0.0521
     18 H          -0.0989    0.5549    3.0898 H       3  UNL3        0.2090
     19 O          -0.2639   -1.9797    7.5259 O.3     4  UNL4       -0.3982
     20 C          -1.5631   -1.4219    7.6010 C.3     4  UNL4        0.0330
     21 H          -1.4918   -0.3648    7.8686 H       4  UNL4        0.0521
     22 H          -2.1487   -1.9598    8.3504 H       4  UNL4        0.0521
     23 H          -2.0474   -1.5169    6.6263 H       4  UNL4        0.0521
     24 H           0.1406   -1.8809    8.4046 H       4  UNL4        0.2090
     25 O          -2.4071   -1.0139   12.3228 O.3     5  UNL5       -0.3982
     26 C          -1.9187   -1.0704   10.9951 C.3     5  UNL5        0.0330
     27 H          -0.8262   -1.0909   11.0084 H       5  UNL5        0.0521
     28 H          -2.2706   -0.1980   10.4391 H       5  UNL5        0.0521
     29 H          -2.2923   -1.9791   10.5174 H       5  UNL5        0.0521
     30 H          -2.0593   -0.1977   12.7207 H       5  UNL5        0.2090
     31 O          -2.3084   -1.0995   15.9349 O.3     6  UNL6       -0.3982
     32 C          -1.1066   -1.0995   15.1864 C.3     6  UNL6        0.0330
     33 H          -1.1587   -1.8685   14.4117 H       6  UNL6        0.0521
     34 H          -0.2620   -1.2942   15.8518 H       6  UNL6        0.0521
     35 H          -0.9801   -0.1209   14.7175 H       6  UNL6        0.0521
     36 H          -2.3934   -1.9799   16.3389 H       6  UNL6        0.2090
     37 O          -2.0203   -0.5411   20.3303 O.3     7  UNL7       -0.3982
     38 C          -1.7056   -1.1610   19.0969 C.3     7  UNL7        0.0330
     39 H          -0.6885   -1.5587   19.1369 H       7  UNL7        0.0521
     40 H          -1.7911   -0.4306   18.2887 H       7  UNL7        0.0521
     41 H          -2.4078   -1.9794   18.9212 H       7  UNL7        0.0521
     42 H          -1.3811    0.1802   20.4587 H       7  UNL7        0.2090
     43 O           0.4955   -1.9764   21.3322 O.3     8  UNL8       -0.3982
     44 C           0.7757   -1.3423   22.5667 C.3     8  UNL8        0.0330
     45 H           0.2586   -0.3804   22.6089 H       8  UNL8        0.0521
     46 H           1.8538   -1.1930   22.6642 H       8  UNL8        0.0521
     47 H           0.4232   -1.9791   23.3813 H       8  UNL8        0.0521
     48 H           0.8195   -1.3882   20.6289 H       8  UNL8        0.2090
     49 O          -2.3703   -1.0737   25.9924 O.3     9  UNL9       -0.3982
     50 C          -1.8795   -1.0203   24.6655 C.3     9  UNL9        0.0330
     51 H          -2.0547   -1.9796   24.1722 H       9  UNL9        0.0521
     52 H          -0.8101   -0.7961   24.6804 H       9  UNL9        0.0521
     53 H          -2.4071   -0.2323   24.1229 H       9  UNL9        0.0521
     54 H          -1.8838   -1.7813   26.4487 H       9  UNL9        0.2090
     55 O          -2.1690   -1.0685   29.1846 O.3    10  UNL10      -0.3982
     56 C          -0.7937   -1.1260   28.8533 C.3    10  UNL10       0.0330
     57 H          -0.6119   -1.9791   28.1949 H      10  UNL10       0.0521
     58 H          -0.2018   -1.2245   29.7666 H      10  UNL10       0.0521
     59 H          -0.5135   -0.2045   28.3377 H      10  UNL10       0.0521
     60 H          -2.3880   -1.8989   29.6405 H      10  UNL10       0.2090
     61 O          -2.2741   -0.4407   32.7304 O.3    11  UNL11      -0.3982
     62 C          -1.1860   -1.2821   32.3951 C.3    11  UNL11       0.0330
     63 H          -0.2905   -0.6759   32.2373 H      11  UNL11       0.0521
     64 H          -1.4239   -1.8429   31.4879 H      11  UNL11       0.0521
     65 H          -1.0104   -1.9804   33.2169 H      11  UNL11       0.0521
     66 H          -2.4059    0.1673   31.9830 H      11  UNL11       0.2090
     67 O          -1.9163   -1.5720   37.1243 O.3    12  UNL12      -0.3982
     68 C          -1.5494   -1.4194   35.7654 C.3    12  UNL12       0.0330
     69 H          -0.6318   -1.9797   35.5696 H      12  UNL12       0.0521
     70 H          -1.3961   -0.3601   35.5452 H      12  UNL12       0.0521
     71 H          -2.3525   -1.8078   35.1347 H      12  UNL12       0.0521
     72 H          -1.1849   -1.2188   37.6590 H      12  UNL12       0.2090
     73 O          -0.6260    1.4878   -1.5420 O.3    13  UNL13      -0.3982
     74 C          -2.0418    1.4878   -1.5420 C.3    13  UNL13       0.0330
     75 H          -2.4071    2.4054   -2.0097 H      13  UNL13       0.0521
     76 H          -2.4070    1.4196   -0.5144 H      13  UNL13       0.0521
     77 H          -2.3971    0.6252   -2.1106 H      13  UNL13       0.0521
     78 H          -0.3403    2.2638   -1.0304 H      13  UNL13       0.2090
     79 O          -0.4485    2.2504    1.3893 O.3    14  UNL14      -0.3982
     80 C          -1.4557    3.2381    1.2684 C.3    14  UNL14       0.0330
     81 H          -2.4078    2.8340    1.6211 H      14  UNL14       0.0521
     82 H          -1.5427    3.5449    0.2233 H      14  UNL14       0.0521
     83 H          -1.1809    4.1022    1.8778 H      14  UNL14       0.0521
     84 H          -0.7199    1.4967    0.8381 H      14  UNL14       0.2090
     85 O          -0.8497    3.8454    5.6672 O.3    15  UNL15      -0.3982
     86 C          -0.9691    3.8478    4.2564 C.3    15  UNL15       0.0330
     87 H          -0.9409    4.8767    3.8892 H      15  UNL15       0.0521
     88 H          -1.9101    3.3726    3.9687 H      15  UNL15       0.0521
     89 H          -0.1347    3.2875    3.8282 H      15  UNL15       0.0521
     90 H          -1.6033    4.3495    6.0185 H      15  UNL15       0.2090
     91 O          -0.6266    1.9443    7.5036 O.3    16  UNL16      -0.3982
     92 C          -2.0424    1.9443    7.5036 C.3    16  UNL16       0.0330
     93 H          -2.4077    2.9739    7.5341 H      16  UNL16       0.0521
     94 H          -2.4076    1.3909    8.3722 H      16  UNL16       0.0521
     95 H          -2.3977    1.4609    6.5906 H      16  UNL16       0.0521
     96 H          -0.3409    2.3793    8.3250 H      16  UNL16       0.2090
     97 O          -1.3883    2.1763   12.0282 O.3    17  UNL17      -0.3982
     98 C          -1.4179    2.5244   10.6562 C.3    17  UNL17       0.0330
     99 H          -2.2845    3.1604   10.4593 H      17  UNL17       0.0521
    100 H          -1.4734    1.6167   10.0503 H      17  UNL17       0.0521
    101 H          -0.5044    3.0699   10.4082 H      17  UNL17       0.0521
    102 H          -2.2108    1.6938   12.2184 H      17  UNL17       0.2090
    103 O          -2.2998    3.4633   15.4318 O.3    18  UNL18      -0.3982
    104 C          -1.7303    2.2188   15.0694 C.3    18  UNL18       0.0330
    105 H          -0.7592    2.3852   14.5966 H      18  UNL18       0.0521
    106 H          -2.3990    1.6983   14.3795 H      18  UNL18       0.0521
    107 H          -1.5962    1.6139   15.9693 H      18  UNL18       0.0521
    108 H          -2.4069    3.9776   14.6135 H      18  UNL18       0.2090
    109 O          -2.2121    3.3690   19.5055 O.3    19  UNL19      -0.3982
    110 C          -1.6699    2.2882   18.7691 C.3    19  UNL19       0.0330
    111 H          -0.7675    1.9237   19.2662 H      19  UNL19       0.0521
    112 H          -1.4317    2.6199   17.7556 H      19  UNL19       0.0521
    113 H          -2.4079    1.4840   18.7229 H      19  UNL19       0.0521
    114 H          -1.5351    4.0666   19.5294 H      19  UNL19       0.2090
    115 O          -1.1000    1.5491   22.2119 O.3    20  UNL20      -0.3982
    116 C          -0.7539    2.9202   22.1435 C.3    20  UNL20       0.0330
    117 H          -0.3182    3.2350   23.0951 H      20  UNL20       0.0521
    118 H          -1.6465    3.5118   21.9259 H      20  UNL20       0.0521
    119 H          -0.0217    3.0624   21.3453 H      20  UNL20       0.0521
    120 H          -1.7505    1.4540   22.9284 H      20  UNL20       0.2090
    121 O          -0.9265    2.0719   25.7460 O.3    21  UNL21      -0.3982
    122 C          -1.7405    3.1408   25.2995 C.3    21  UNL21       0.0330
    123 H          -1.1082    3.9764   24.9891 H      21  UNL21       0.0521
    124 H          -2.4067    3.4545   26.1068 H      21  UNL21       0.0521
    125 H          -2.3366    2.8022   24.4489 H      21  UNL21       0.0521
    126 H          -0.4098    2.4022   26.5006 H      21  UNL21       0.2090
    127 O          -0.5358    2.1509   28.8756 O.3    22  UNL22      -0.3982
    128 C          -1.9371    1.9718   28.7808 C.3    22  UNL22       0.0330
    129 H          -2.4076    2.9162   28.4963 H      22  UNL22       0.0521
    130 H          -2.3279    1.6331   29.7433 H      22  UNL22       0.0521
    131 H          -2.1482    1.2180   28.0187 H      22  UNL22       0.0521
    132 H          -0.3795    2.8247   29.5589 H      22  UNL22       0.2090
    133 O          -0.0654    1.9998   33.2235 O.3    23  UNL23      -0.3982
    134 C          -0.9305    2.3369   32.1548 C.3    23  UNL23       0.0330
    135 H          -1.9614    2.3708   32.5160 H      23  UNL23       0.0521
    136 H          -0.8360    1.5931   31.3599 H      23  UNL23       0.0521
    137 H          -0.6502    3.3190   31.7670 H      23  UNL23       0.0521
    138 H          -0.3383    1.1243   33.5468 H      23  UNL23       0.2090
    139 O          -1.9516    2.6889   37.9001 O.3    24  UNL24      -0.3982
    140 C          -1.5333    1.4272   37.4124 C.3    24  UNL24       0.0330
    141 H          -1.0516    0.8660   38.2170 H      24  UNL24       0.0521
    142 H          -0.8350    1.5691   36.5840 H      24  UNL24       0.0521
    143 H          -2.4074    0.8754   37.0588 H      24  UNL24       0.0521
    144 H          -1.1551    3.1551   38.2065 H      24  UNL24       0.2090
    145 O          -0.5235    5.9600   -1.9959 O.3    25  UNL25      -0.3982
    146 C           0.4363    4.9675   -1.6826 C.3    25  UNL25       0.0330
    147 H           0.5210    4.8710   -0.5974 H      25  UNL25       0.0521
    148 H           1.4023    5.2455   -2.1110 H      25  UNL25       0.0521
    149 H           0.1129    4.0141   -2.1069 H      25  UNL25       0.0521
    150 H          -0.2096    6.7940   -1.6067 H      25  UNL25       0.2090
    151 O          -0.6260    6.6336    1.6970 O.3    26  UNL26      -0.3982
    152 C          -2.0418    6.6336    1.6970 C.3    26  UNL26       0.0330
    153 H          -2.4071    7.4942    2.2628 H      26  UNL26       0.0521
    154 H          -2.4070    5.7070    2.1464 H      26  UNL26       0.0521
    155 H          -2.3971    6.7007    0.6660 H      26  UNL26       0.0521
    156 H          -0.3403    6.5732    2.6245 H      26  UNL26       0.2090
    157 O          -2.0181    7.1080    4.7586 O.3    27  UNL27      -0.3982
    158 C          -1.5373    6.9482    6.0807 C.3    27  UNL27       0.0330
    159 H          -0.7792    6.1613    6.1010 H      27  UNL27       0.0521
    160 H          -2.3670    6.6867    6.7419 H      27  UNL27       0.0521
    161 H          -1.0920    7.8889    6.4129 H      27  UNL27       0.0521
    162 H          -2.4073    6.2579    4.4914 H      27  UNL27       0.2090
    163 O           1.3183    5.6064    9.4089 O.3    28  UNL28      -0.3982
    164 C           0.8073    4.9586    8.2584 C.3    28  UNL28       0.0330
    165 H           0.9171    5.6141    7.3910 H      28  UNL28       0.0521
    166 H          -0.2467    4.7157    8.4139 H      28  UNL28       0.0521
    167 H           1.3701    4.0375    8.0898 H      28  UNL28       0.0521
    168 H           0.7997    6.4195    9.5330 H      28  UNL28       0.2090
    169 O          -1.5342    5.7232   10.2944 O.3    29  UNL29      -0.3982
    170 C          -0.9122    5.6962   11.5660 C.3    29  UNL29       0.0330
    171 H          -0.8016    4.6605   11.8967 H      29  UNL29       0.0521
    172 H          -1.5197    6.2555   12.2817 H      29  UNL29       0.0521
    173 H           0.0744    6.1591   11.4888 H      29  UNL29       0.0521
    174 H          -2.4069    5.3062   10.3944 H      29  UNL29       0.2090
    175 O           0.2159    5.3197   15.8859 O.3    30  UNL30      -0.3982
    176 C           0.0271    5.8185   14.5744 C.3    30  UNL30       0.0330
    177 H          -0.9685    5.5422   14.2183 H      30  UNL30       0.0521
    178 H           0.7908    5.4033   13.9122 H      30  UNL30       0.0521
    179 H           0.1161    6.9072   14.5921 H      30  UNL30       0.0521
    180 H           0.1313    4.3521   15.8385 H      30  UNL30       0.2090
    181 O          -2.2212    6.5995   19.0518 O.3    31  UNL31      -0.3982
    182 C          -1.5872    6.0861   17.8947 C.3    31  UNL31       0.0330
    183 H          -2.2542    5.3781   17.3965 H      31  UNL31       0.0521
    184 H          -0.6566    5.5886   18.1785 H      31  UNL31       0.0521
    185 H          -1.3637    6.9123   17.2158 H      31  UNL31       0.0521
    186 H          -2.4071    5.8438   19.6349 H      31  UNL31       0.2090
    187 O          -0.2945    6.1429   22.8779 O.3    32  UNL32      -0.3982
    188 C          -1.0593    6.2295   21.6896 C.3    32  UNL32       0.0330
    189 H          -2.1156    6.0745   21.9230 H      32  UNL32       0.0521
    190 H          -0.7173    5.4729   20.9793 H      32  UNL32       0.0521
    191 H          -0.9267    7.2222   21.2532 H      32  UNL32       0.0521
    192 H          -0.4321    5.2519   23.2420 H      32  UNL32       0.2090
    193 O          -2.4068    6.2531   26.5202 O.3    33  UNL33      -0.3982
    194 C          -1.8446    6.6043   25.2692 C.3    33  UNL33       0.0330
    195 H          -2.0519    5.8159   24.5413 H      33  UNL33       0.0521
    196 H          -0.7658    6.7393   25.3786 H      33  UNL33       0.0521
    197 H          -2.2939    7.5398   24.9277 H      33  UNL33       0.0521
    198 H          -1.9890    5.4199   26.7974 H      33  UNL33       0.2090
    199 O          -2.2893    5.5734   30.7591 O.3    34  UNL34      -0.3982
    200 C          -1.7242    5.4193   29.4702 C.3    34  UNL34       0.0330
    201 H          -2.4017    4.8361   28.8416 H      34  UNL34       0.0521
    202 H          -0.7595    4.9126   29.5527 H      34  UNL34       0.0521
    203 H          -1.5778    6.4067   29.0261 H      34  UNL34       0.0521
    204 H          -2.4074    4.6815   31.1279 H      34  UNL34       0.2090
    205 O          -2.4077    3.5735   35.1534 O.3    35  UNL35      -0.3982
    206 C          -1.8607    4.5333   34.2679 C.3    35  UNL35       0.0330
    207 H          -2.3564    4.4588   33.2968 H      35  UNL35       0.0521
    208 H          -0.7881    4.3574   34.1559 H      35  UNL35       0.0521
    209 H          -2.0228    5.5314   34.6816 H      35  UNL35       0.0521
    210 H          -2.2487    2.6986   34.7600 H      35  UNL35       0.2090
    211 O          -2.4079    5.6895   37.7307 O.3    36  UNL36      -0.3982
    212 C          -1.4081    6.5497   37.2160 C.3    36  UNL36       0.0330
    213 H          -0.8003    6.0082   36.4868 H      36  UNL36       0.0521
    214 H          -0.7797    6.9100   38.0342 H      36  UNL36       0.0521
    215 H          -1.8886    7.4002   36.7268 H      36  UNL36       0.0521
    216 H          -1.9516    4.9449   38.1585 H      36  UNL36       0.2090
    217 O           1.7094    8.6646   -1.2360 O.3    37  UNL37      -0.3982
    218 C           1.2251    9.9767   -1.4559 C.3    37  UNL37       0.0330
    219 H           1.1524   10.5040   -0.5015 H      37  UNL37       0.0521
    220 H           0.2434    9.9284   -1.9334 H      37  UNL37       0.0521
    221 H           1.9205   10.5069   -2.1107 H      37  UNL37       0.0521
    222 H           1.0721    8.2189   -0.6522 H      37  UNL37       0.2090
    223 O          -2.3824    8.2200   -1.2773 O.3    38  UNL38      -0.3982
    224 C          -1.8921    9.1577   -0.3366 C.3    38  UNL38       0.0330
    225 H          -2.0837   10.1713   -0.6974 H      38  UNL38       0.0521
    226 H          -0.8192    9.0064   -0.1954 H      38  UNL38       0.0521
    227 H          -2.4072    9.0086    0.6152 H      38  UNL38       0.0521
    228 H          -1.9072    8.3765   -2.1111 H      38  UNL38       0.2090
    229 O          -0.0961    9.1566    3.3074 O.3    39  UNL39      -0.3982
    230 C           0.0898    9.7734    4.5682 C.3    39  UNL39       0.0330
    231 H           0.3327    9.0130    5.3146 H      39  UNL39       0.0521
    232 H          -0.8229   10.3017    4.8543 H      39  UNL39       0.0521
    233 H           0.9140   10.4869    4.4966 H      39  UNL39       0.0521
    234 H          -0.8331    8.5294    3.4021 H      39  UNL39       0.2090
    235 O          -1.7776   10.5800    8.8421 O.3    40  UNL40      -0.3982
    236 C          -1.4471   10.1207    7.5443 C.3    40  UNL40       0.0330
    237 H          -0.9895   10.9334    6.9747 H      40  UNL40       0.0521
    238 H          -2.3510    9.7715    7.0393 H      40  UNL40       0.0521
    239 H          -0.7379    9.2941    7.6298 H      40  UNL40       0.0521
    240 H          -2.4079   11.3126    8.7340 H      40  UNL40       0.2090
    241 O          -1.4370    8.4949   10.9109 O.3    41  UNL41      -0.3982
    242 C          -1.7163    8.9338   12.2276 C.3    41  UNL41       0.0330
    243 H          -2.1569    8.1139   12.8003 H      41  UNL41       0.0521
    244 H          -2.4070    9.7798   12.1919 H      41  UNL41       0.0521
    245 H          -0.7839    9.2474   12.7029 H      41  UNL41       0.0521
    246 H          -2.2826    8.2233   10.5149 H      41  UNL41       0.2090
    247 O          -2.2557    8.7663   15.9129 O.3    42  UNL42      -0.3982
    248 C          -1.6282    9.8876   15.3185 C.3    42  UNL42       0.0330
    249 H          -2.2824   10.3079   14.5505 H      42  UNL42       0.0521
    250 H          -0.6777    9.5816   14.8748 H      42  UNL42       0.0521
    251 H          -1.4429   10.6406   16.0881 H      42  UNL42       0.0521
    252 H          -2.4073    8.1158   15.2063 H      42  UNL42       0.2090
    253 O          -0.5272    9.1936   18.4852 O.3    43  UNL43      -0.3982
    254 C          -1.8017    9.6585   18.8900 C.3    43  UNL43       0.0330
    255 H          -2.3157   10.1059   18.0355 H      43  UNL43       0.0521
    256 H          -1.6849   10.3976   19.6863 H      43  UNL43       0.0521
    257 H          -2.3862    8.8140   19.2626 H      43  UNL43       0.0521
    258 H          -0.0319    9.9645   18.1597 H      43  UNL43       0.2090
    259 O          -2.4069   10.5343   22.6508 O.3    44  UNL44      -0.3982
    260 C          -1.7261    9.2962   22.5614 C.3    44  UNL44       0.0330
    261 H          -0.8084    9.3404   23.1532 H      44  UNL44       0.0521
    262 H          -1.4883    9.0848   21.5161 H      44  UNL44       0.0521
    263 H          -2.3718    8.5065   22.9528 H      44  UNL44       0.0521
    264 H          -1.8097   11.2150   22.2965 H      44  UNL44       0.2090
    265 O          -1.3473    9.4219   26.0002 O.3    45  UNL45      -0.3982
    266 C           0.0544    9.3438   25.8167 C.3    45  UNL45       0.0330
    267 H           0.4308   10.3069   25.4630 H      45  UNL45       0.0521
    268 H           0.2845    8.5613   25.0894 H      45  UNL45       0.0521
    269 H           0.5248    9.0998   26.7721 H      45  UNL45       0.0521
    270 H          -1.7368    9.6395   25.1362 H      45  UNL45       0.2090
    271 O          -2.4059   10.1317   29.5475 O.3    46  UNL46      -0.3982
    272 C          -1.7483    9.0133   28.9809 C.3    46  UNL46       0.0330
    273 H          -1.5169    8.2892   29.7660 H      46  UNL46       0.0521
    274 H          -0.8287    9.3406   28.4897 H      46  UNL46       0.0521
    275 H          -2.4075    8.5495   28.2433 H      46  UNL46       0.0521
    276 H          -1.7971   10.5222   30.1974 H      46  UNL46       0.2090
    277 O          -2.3439    8.2500   33.7281 O.3    47  UNL47      -0.3982
    278 C          -1.7349    8.6345   32.5092 C.3    47  UNL47       0.0330
    279 H          -1.5491    7.7478   31.8980 H      47  UNL47       0.0521
    280 H          -0.7943    9.1501   32.7176 H      47  UNL47       0.0521
    281 H          -2.4068    9.3093   31.9736 H      47  UNL47       0.0521
    282 H          -1.7248    7.6522   34.1807 H      47  UNL47       0.2090
    283 O          -1.5730    9.6921   36.3721 O.3    48  UNL48      -0.3982
    284 C          -1.4850    9.5962   37.7819 C.3    48  UNL48       0.0330
    285 H          -2.3330    9.0216   38.1626 H      48  UNL48       0.0521
    286 H          -1.4857   10.5986   38.2168 H      48  UNL48       0.0521
    287 H          -0.5549    9.0875   38.0460 H      48  UNL48       0.0521
    288 H          -2.4076   10.1475   36.1682 H      48  UNL48       0.2090
    289 O          -2.2851   12.3591   -0.4133 O.3    49  UNL49      -0.3982
    290 C          -1.3166   12.5815   -1.4218 C.3    49  UNL49       0.0330
    291 H          -0.3772   12.8991   -0.9625 H      49  UNL49       0.0521
    292 H          -1.6761   13.3501   -2.1103 H      49  UNL49       0.0521
    293 H          -1.1549   11.6507   -1.9705 H      49  UNL49       0.0521
    294 H          -2.4074   13.2018    0.0562 H      49  UNL49       0.2090
    295 O          -0.4422   12.4296    2.2558 O.3    50  UNL50      -0.3982
    296 C          -1.5437   11.5441    2.1729 C.3    50  UNL50       0.0330
    297 H          -1.7791   11.1597    3.1685 H      50  UNL50       0.0521
    298 H          -1.2987   10.7184    1.5004 H      50  UNL50       0.0521
    299 H          -2.4071   12.0866    1.7807 H      50  UNL50       0.0521
    300 H           0.3081   11.9203    2.6067 H      50  UNL50       0.2090
    301 O          -0.6136   13.1711    5.0922 O.3    51  UNL51      -0.3982
    302 C          -2.0292   13.1770    5.0676 C.3    51  UNL51       0.0330
    303 H          -2.4067   12.2707    5.5475 H      51  UNL51       0.0521
    304 H          -2.3763   13.2257    4.0326 H      51  UNL51       0.0521
    305 H          -2.3904   14.0526    5.6121 H      51  UNL51       0.0521
    306 H          -0.3227   12.3836    4.6016 H      51  UNL51       0.2090
    307 O          -0.4521   14.5120    9.1474 O.3    52  UNL52      -0.3982
    308 C          -0.5680   13.5787    8.0891 C.3    52  UNL52       0.0330
    309 H           0.3144   13.6425    7.4475 H      52  UNL52       0.0521
    310 H          -1.4692   13.7935    7.5098 H      52  UNL52       0.0521
    311 H          -0.6385   12.5725    8.5089 H      52  UNL52       0.0521
    312 H          -0.3914   15.3949    8.7443 H      52  UNL52       0.2090
    313 O          -1.6801   13.2815   12.0858 O.3    53  UNL53      -0.3982
    314 C          -1.8263   12.4676   10.9366 C.3    53  UNL53       0.0330
    315 H          -2.3511   11.5473   11.2052 H      53  UNL53       0.0521
    316 H          -0.8406   12.2316   10.5283 H      53  UNL53       0.0521
    317 H          -2.4078   13.0109   10.1881 H      53  UNL53       0.0521
    318 H          -1.1604   12.7732   12.7317 H      53  UNL53       0.2090
    319 O          -2.4069   14.1688   14.4788 O.3    54  UNL54      -0.3982
    320 C          -1.8520   13.5264   15.6119 C.3    54  UNL54       0.0330
    321 H          -2.0069   14.1485   16.4969 H      54  UNL54       0.0521
    322 H          -0.7838   13.3616   15.4516 H      54  UNL54       0.0521
    323 H          -2.3495   12.5641   15.7539 H      54  UNL54       0.0521
    324 H          -1.9460   15.0191   14.3782 H      54  UNL54       0.2090
    325 O          -2.0457   12.9850   18.7362 O.3    55  UNL55      -0.3982
    326 C          -0.7051   12.6811   18.3971 C.3    55  UNL55       0.0330
    327 H          -0.6750   11.7505   17.8249 H      55  UNL55       0.0521
    328 H          -0.1116   12.5800   19.3090 H      55  UNL55       0.0521
    329 H          -0.2995   13.4933   17.7893 H      55  UNL55       0.0521
    330 H          -2.3784   12.2470   19.2750 H      55  UNL55       0.2090
    331 O          -2.4070   14.6043   22.7103 O.3    56  UNL56      -0.3982
    332 C          -1.7612   13.8660   21.6894 C.3    56  UNL56       0.0330
    333 H          -2.2904   12.9232   21.5298 H      56  UNL56       0.0521
    334 H          -0.7259   13.6705   21.9791 H      56  UNL56       0.0521
    335 H          -1.7748   14.4496   20.7659 H      56  UNL56       0.0521
    336 H          -2.3793   14.0615   23.5166 H      56  UNL56       0.2090
    337 O          -0.6075   12.5153   24.3277 O.3    57  UNL57      -0.3982
    338 C          -1.3079   12.4335   25.5554 C.3    57  UNL57       0.0330
    339 H          -0.8093   11.7175   26.2135 H      57  UNL57       0.0521
    340 H          -2.3370   12.1174   25.3684 H      57  UNL57       0.0521
    341 H          -1.3119   13.4183   26.0285 H      57  UNL57       0.0521
    342 H          -0.6208   11.6274   23.9316 H      57  UNL57       0.2090
    343 O          -2.1343   13.2884   29.8840 O.3    58  UNL58      -0.3982
    344 C          -1.9163   13.1747   28.4897 C.3    58  UNL58       0.0330
    345 H          -2.3389   12.2335   28.1294 H      58  UNL58       0.0521
    346 H          -0.8437   13.2074   28.2839 H      58  UNL58       0.0521
    347 H          -2.4077   14.0093   27.9841 H      58  UNL58       0.0521
    348 H          -1.6870   12.5349   30.3054 H      58  UNL58       0.2090
    349 O          -2.0208   11.6184   34.0850 O.3    59  UNL59      -0.3982
    350 C          -1.8970   12.1398   32.7746 C.3    59  UNL59       0.0330
    351 H          -2.3580   11.4510   32.0623 H      59  UNL59       0.0521
    352 H          -0.8399   12.2761   32.5341 H      59  UNL59       0.0521
    353 H          -2.4067   13.1050   32.7266 H      59  UNL59       0.0521
    354 H          -1.5594   10.7626   34.0968 H      59  UNL59       0.2090
    355 O          -1.3291   13.8075   35.9617 O.3    60  UNL60      -0.3982
    356 C          -1.2356   12.6989   36.8374 C.3    60  UNL60       0.0330
    357 H          -1.0443   13.0516   37.8539 H      60  UNL60       0.0521
    358 H          -0.4262   12.0420   36.5098 H      60  UNL60       0.0521
    359 H          -2.1794   12.1490   36.8163 H      60  UNL60       0.0521
    360 H          -0.4778   14.2757   36.0016 H      60  UNL60       0.2090
    361 O          -1.6930   17.1107   -1.3887 O.3    61  UNL61      -0.3982
    362 C          -1.6989   15.7098   -1.1840 C.3    61  UNL61       0.0330
    363 H          -2.4073   15.4595   -0.3904 H      61  UNL61       0.0521
    364 H          -0.6951   15.3766   -0.9094 H      61  UNL61       0.0521
    365 H          -2.0034   15.2167   -2.1101 H      61  UNL61       0.0521
    366 H          -1.4191   17.5207   -0.5506 H      61  UNL61       0.2090
    367 O          -2.1043   15.0201    2.1177 O.3    62  UNL62      -0.3982
    368 C          -1.8996   16.4210    2.1177 C.3    62  UNL62       0.0330
    369 H          -2.4076   16.8644    1.2577 H      62  UNL62       0.0521
    370 H          -0.8287   16.6336    2.0713 H      62  UNL62       0.0521
    371 H          -2.3125   16.8404    3.0381 H      62  UNL62       0.0521
    372 H          -1.7279   14.6763    1.2897 H      62  UNL62       0.2090
    373 O          -0.8107   17.6370    4.9117 O.3    63  UNL63      -0.3982
    374 C          -0.4982   16.2627    4.7777 C.3    63  UNL63       0.0330
    375 H          -0.0128   15.9078    5.6903 H      63  UNL63       0.0521
    376 H           0.1649   16.1208    3.9208 H      63  UNL63       0.0521
    377 H          -1.4221   15.7022    4.6174 H      63  UNL63       0.0521
    378 H           0.0280   18.1084    5.0527 H      63  UNL63       0.2090
    379 O          -2.2588   17.1084    8.9550 O.3    64  UNL64      -0.3982
    380 C          -1.9517   16.9571    7.5812 C.3    64  UNL64       0.0330
    381 H          -0.8678   16.9022    7.4530 H      64  UNL64       0.0521
    382 H          -2.3530   17.8056    7.0217 H      64  UNL64       0.0521
    383 H          -2.4069   16.0339    7.2149 H      64  UNL64       0.0521
    384 H          -1.8419   17.9353    9.2515 H      64  UNL64       0.2090
    385 O          -0.4831   16.1943   11.3274 O.3    65  UNL65      -0.3982
    386 C          -1.4593   16.8400   12.1240 C.3    65  UNL65       0.0330
    387 H          -2.0930   17.4651   11.4900 H      65  UNL65       0.0521
    388 H          -0.9652   17.4535   12.8813 H      65  UNL65       0.0521
    389 H          -2.0740   16.0827   12.6161 H      65  UNL65       0.0521
    390 H           0.0466   16.8912   10.9038 H      65  UNL65       0.2090
    391 O          -1.4775   18.3952   16.2864 O.3    66  UNL66      -0.3982
    392 C          -1.7923   17.2601   15.5009 C.3    66  UNL66       0.0330
    393 H          -2.3483   16.5398   16.1062 H      66  UNL66       0.0521
    394 H          -0.8704   16.8057   15.1299 H      66  UNL66       0.0521
    395 H          -2.4078   17.5734   14.6544 H      66  UNL66       0.0521
    396 H          -0.9313   18.0861   17.0291 H      66  UNL66       0.2090
    397 O          -1.2117   15.6110   18.3735 O.3    67  UNL67      -0.3982
    398 C          -1.7636   16.6545   19.1552 C.3    67  UNL67       0.0330
    399 H          -2.3566   17.3145   18.5172 H      67  UNL67       0.0521
    400 H          -0.9584   17.2184   19.6324 H      67  UNL67       0.0521
    401 H          -2.4067   16.2203   19.9242 H      67  UNL67       0.0521
    402 H          -0.6463   16.0267   17.7003 H      67  UNL67       0.2090
    403 O           0.2558   17.9972   22.3448 O.3    68  UNL68      -0.3982
    404 C          -0.0503   16.6228   22.1966 C.3    68  UNL68       0.0330
    405 H          -1.1285   16.4758   22.2974 H      68  UNL68       0.0521
    406 H           0.4796   16.0464   22.9588 H      68  UNL68       0.0521
    407 H           0.2692   16.2926   21.2054 H      68  UNL68       0.0521
    408 H          -0.0390   18.2614   23.2330 H      68  UNL68       0.2090
    409 O          -1.5778   15.5344   25.3798 O.3    69  UNL69      -0.3982
    410 C          -1.0200   16.7252   25.9045 C.3    69  UNL69       0.0330
    411 H          -1.7161   17.1705   26.6197 H      69  UNL69       0.0521
    412 H          -0.8207   17.4252   25.0895 H      69  UNL69       0.0521
    413 H          -0.0831   16.4849   26.4126 H      69  UNL69       0.0521
    414 H          -2.4073   15.7792   24.9353 H      69  UNL69       0.2090
    415 O          -0.8512   15.6940   29.8768 O.3    70  UNL70      -0.3982
    416 C          -1.7472   16.5815   29.2334 C.3    70  UNL70       0.0330
    417 H          -2.3452   16.0310   28.5029 H      70  UNL70       0.0521
    418 H          -1.1823   17.3733   28.7353 H      70  UNL70       0.0521
    419 H          -2.4079   17.0243   29.9824 H      70  UNL70       0.0521
    420 H          -0.2783   15.3169   29.1875 H      70  UNL70       0.2090
    421 O          -2.2402   16.1718   32.3881 O.3    71  UNL71      -0.3982
    422 C          -1.9193   15.8326   33.7247 C.3    71  UNL71       0.0330
    423 H          -2.2758   16.6174   34.3964 H      71  UNL71       0.0521
    424 H          -0.8371   15.7181   33.8226 H      71  UNL71       0.0521
    425 H          -2.4078   14.8889   33.9788 H      71  UNL71       0.0521
    426 H          -1.7930   17.0126   32.1915 H      71  UNL71       0.2090
    427 O          -1.8021   15.5635   37.8507 O.3    72  UNL72      -0.3982
    428 C          -1.4927   16.8672   37.3935 C.3    72  UNL72       0.0330
    429 H          -0.7686   16.8058   36.5773 H      72  UNL72       0.0521
    430 H          -1.0802   17.4548   38.2173 H      72  UNL72       0.0521
    431 H          -2.4070   17.3431   37.0316 H      72  UNL72       0.0521
    432 H          -0.9721   15.1666   38.1655 H      72  UNL72       0.2090
    433 O          -1.8682   20.6603   -1.9076 O.3    73  UNL73      -0.3982
    434 C          -0.5008   20.6950   -1.5422 C.3    73  UNL73       0.0330
    435 H          -0.0310   19.7410   -1.7941 H      73  UNL73       0.0521
    436 H          -0.4141   20.8841   -0.4695 H      73  UNL73       0.0521
    437 H          -0.0063   21.4988   -2.0927 H      73  UNL73       0.0521
    438 H          -2.2804   19.9380   -1.4036 H      73  UNL73       0.2090
    439 O          -2.3807   20.5931    1.4855 O.3    74  UNL74      -0.3982
    440 C          -1.5695   19.4326    1.4855 C.3    74  UNL74       0.0330
    441 H          -2.0071   18.6811    2.1474 H      74  UNL74       0.0521
    442 H          -0.5632   19.6905    1.8245 H      74  UNL74       0.0521
    443 H          -1.5186   19.0348    0.4693 H      74  UNL74       0.0521
    444 H          -2.4070   20.9232    2.3998 H      74  UNL74       0.2090
    445 O          -2.3838   20.8883    5.9629 O.3    75  UNL75      -0.3982
    446 C          -1.5735   20.6601    4.8245 C.3    75  UNL75       0.0330
    447 H          -2.0099   19.8613    4.2197 H      75  UNL75       0.0521
    448 H          -0.5662   20.3816    5.1432 H      75  UNL75       0.0521
    449 H          -1.5256   21.5774    4.2329 H      75  UNL75       0.0521
    450 H          -2.4075   20.0576    6.4678 H      75  UNL75       0.2090
    451 O          -0.6350   21.1423    8.0893 O.3    76  UNL76      -0.3982
    452 C          -0.0939   19.8411    7.9534 C.3    76  UNL76       0.0330
    453 H           0.6380   19.6652    8.7456 H      76  UNL76       0.0521
    454 H           0.3821   19.7439    6.9746 H      76  UNL76       0.0521
    455 H          -0.9014   19.1100    8.0375 H      76  UNL76       0.0521
    456 H           0.1044   21.7689    8.0103 H      76  UNL76       0.2090
    457 O          -1.8807   20.2432   12.0751 O.3    77  UNL77      -0.3982
    458 C          -1.4598   20.0578   10.7361 C.3    77  UNL77       0.0330
    459 H          -2.3346   19.9729   10.0866 H      77  UNL77       0.0521
    460 H          -0.8517   19.1526   10.6664 H      77  UNL77       0.0521
    461 H          -0.8628   20.9196   10.4288 H      77  UNL77       0.0521
    462 H          -2.4077   19.4634   12.3195 H      77  UNL77       0.2090
    463 O          -2.4070   21.3481   16.1298 O.3    78  UNL78      -0.3982
    464 C          -1.7612   21.0030   14.9181 C.3    78  UNL78       0.0330
    465 H          -2.2904   20.1714   14.4461 H      78  UNL78       0.0521
    466 H          -0.7259   20.7203   15.1237 H      78  UNL78       0.0521
    467 H          -1.7748   21.8670   14.2497 H      78  UNL78       0.0521
    468 H          -2.3793   20.5624   16.7022 H      78  UNL78       0.2090
    469 O          -0.7333   20.5216   18.5454 O.3    79  UNL79      -0.3982
    470 C          -1.7900   19.8991   19.2528 C.3    79  UNL79       0.0330
    471 H          -1.3773   19.2473   20.0268 H      79  UNL79       0.0521
    472 H          -2.4009   19.3168   18.5587 H      79  UNL79       0.0521
    473 H          -2.4076   20.6699   19.7198 H      79  UNL79       0.0521
    474 H          -0.2031   19.8132   18.1422 H      79  UNL79       0.2090
    475 O           0.2900   21.1475   23.1385 O.3    80  UNL80      -0.3982
    476 C          -0.1857   20.9069   21.8269 C.3    80  UNL80       0.0330
    477 H          -0.0918   21.8184   21.2314 H      80  UNL80       0.0521
    478 H          -1.2315   20.5930   21.8696 H      80  UNL80       0.0521
    479 H           0.4122   20.1138   21.3720 H      80  UNL80       0.0521
    480 H          -0.2593   21.8552   23.5164 H      80  UNL80       0.2090
    481 O          -2.1958   20.9663   25.0020 O.3    81  UNL81      -0.3982
    482 C          -1.8005   19.6488   24.6668 C.3    81  UNL81       0.0330
    483 H          -2.4072   18.9320   25.2257 H      81  UNL81       0.0521
    484 H          -0.7432   19.5126   24.9067 H      81  UNL81       0.0521
    485 H          -1.9518   19.4941   23.5960 H      81  UNL81       0.0521
    486 H          -2.0502   21.0740   25.9574 H      81  UNL81       0.2090
    487 O          -0.8424   20.0132   29.7939 O.3    82  UNL82      -0.3982
    488 C          -1.3540   20.0205   28.4738 C.3    82  UNL82       0.0330
    489 H          -2.4074   19.7299   28.4887 H      82  UNL82       0.0521
    490 H          -0.7816   19.3240   27.8565 H      82  UNL82       0.0521
    491 H          -1.2621   21.0285   28.0627 H      82  UNL82       0.0521
    492 H          -0.9372   19.1065   30.1321 H      82  UNL82       0.2090
    493 O          -2.4077   19.7087   33.9268 O.3    83  UNL83      -0.3982
    494 C          -1.7608   19.8445   32.6748 C.3    83  UNL83       0.0330
    495 H          -2.1658   19.1113   31.9729 H      83  UNL83       0.0521
    496 H          -0.6864   19.6899   32.8002 H      83  UNL83       0.0521
    497 H          -1.9393   20.8513   32.2900 H      83  UNL83       0.0521
    498 H          -2.2315   18.8061   34.2430 H      83  UNL83       0.2090
    499 O          -1.1661   20.5496   38.0015 O.3    84  UNL84      -0.3982
    500 C          -1.0411   19.8546   36.7744 C.3    84  UNL84       0.0330
    501 H          -0.3164   19.0441   36.8858 H      84  UNL84       0.0521
    502 H          -0.7132   20.5462   35.9946 H      84  UNL84       0.0521
    503 H          -2.0131   19.4364   36.5023 H      84  UNL84       0.0521
    504 H          -0.2886   20.9091   38.2169 H      84  UNL84       0.2090
    505 O          -1.6935   25.1706   -1.3887 O.3    85  UNL85      -0.3982
    506 C          -1.6995   23.7697   -1.1840 C.3    85  UNL85       0.0330
    507 H          -2.4079   23.5194   -0.3904 H      85  UNL85       0.0521
    508 H          -0.6957   23.4365   -0.9094 H      85  UNL85       0.0521
    509 H          -2.0040   23.2766   -2.1101 H      85  UNL85       0.0521
    510 H          -1.4196   25.5806   -0.5506 H      85  UNL85       0.2090
    511 O          -2.1043   23.0261    2.1490 O.3    86  UNL86      -0.3982
    512 C          -1.8996   24.4270    2.1490 C.3    86  UNL86       0.0330
    513 H          -2.4076   24.8704    1.2890 H      86  UNL86       0.0521
    514 H          -0.8287   24.6395    2.1026 H      86  UNL86       0.0521
    515 H          -2.3125   24.8464    3.0694 H      86  UNL86       0.0521
    516 H          -1.7279   22.6823    1.3210 H      86  UNL86       0.2090
    517 O          -0.5596   25.8945    4.2881 O.3    87  UNL87      -0.3982
    518 C          -0.9640   25.0224    5.3276 C.3    87  UNL87       0.0330
    519 H          -1.7868   25.4761    5.8857 H      87  UNL87       0.0521
    520 H          -0.1191   24.8318    5.9938 H      87  UNL87       0.0521
    521 H          -1.2998   24.0795    4.8897 H      87  UNL87       0.0521
    522 H          -0.2671   26.7219    4.7070 H      87  UNL87       0.2090
    523 O          -2.4073   23.3915    9.1116 O.3    88  UNL88      -0.3982
    524 C          -1.4322   24.0148    8.2961 C.3    88  UNL88       0.0330
    525 H          -1.2633   23.4100    7.4016 H      88  UNL88       0.0521
    526 H          -0.5010   24.1221    8.8575 H      88  UNL88       0.0521
    527 H          -1.7938   25.0029    8.0022 H      88  UNL88       0.0521
    528 H          -2.0586   22.5174    9.3565 H      88  UNL88       0.2090
    529 O          -1.6020   23.1525   11.9732 O.3    89  UNL89      -0.3982
    530 C          -1.8200   24.5488   12.0598 C.3    89  UNL89       0.0330
    531 H          -2.3687   24.8882   11.1778 H      89  UNL89       0.0521
    532 H          -0.8591   25.0650   12.1254 H      89  UNL89       0.0521
    533 H          -2.4074   24.7617   12.9560 H      89  UNL89       0.0521
    534 H          -1.0787   22.9944   11.1690 H      89  UNL89       0.2090
    535 O          -2.3413   25.0775   16.4293 O.3    90  UNL90      -0.3982
    536 C          -1.4954   24.7297   15.3486 C.3    90  UNL90       0.0330
    537 H          -1.9309   23.8916   14.7989 H      90  UNL90       0.0521
    538 H          -0.5089   24.4557   15.7305 H      90  UNL90       0.0521
    539 H          -1.3994   25.5896   14.6815 H      90  UNL90       0.0521
    540 H          -2.4073   24.2956   17.0036 H      90  UNL90       0.2090
    541 O          -0.6868   23.2346   18.0688 O.3    91  UNL91      -0.3982
    542 C          -1.2669   23.4724   19.3382 C.3    91  UNL91       0.0330
    543 H          -1.7186   24.4674   19.3528 H      91  UNL91       0.0521
    544 H          -0.4977   23.3984   20.1108 H      91  UNL91       0.0521
    545 H          -2.0387   22.7215   19.5224 H      91  UNL91       0.0521
    546 H          -0.0063   23.9159   17.9335 H      91  UNL91       0.2090
    547 O          -1.7655   25.3268   21.7556 O.3    92  UNL92      -0.3982
    548 C          -1.8247   24.1114   22.4793 C.3    92  UNL92       0.0330
    549 H          -2.3459   24.2748   23.4258 H      92  UNL92       0.0521
    550 H          -0.8113   23.7484   22.6670 H      92  UNL92       0.0521
    551 H          -2.3705   23.3722   21.8882 H      92  UNL92       0.0521
    552 H          -1.2759   25.9627   22.3046 H      92  UNL92       0.2090
    553 O          -1.0722   23.3498   25.5201 O.3    93  UNL93      -0.3982
    554 C          -1.7414   23.7293   26.7087 C.3    93  UNL93       0.0330
    555 H          -2.4069   24.5707   26.5005 H      93  UNL93       0.0521
    556 H          -1.0070   24.0108   27.4672 H      93  UNL93       0.0521
    557 H          -2.3298   22.8830   27.0707 H      93  UNL93       0.0521
    558 H          -0.5588   24.1203   25.2228 H      93  UNL93       0.2090
    559 O          -1.9170   24.2270   30.3144 O.3    94  UNL94      -0.3982
    560 C          -1.5499   22.8962   30.0003 C.3    94  UNL94       0.0330
    561 H          -0.7196   22.9043   29.2899 H      94  UNL94       0.0521
    562 H          -2.4070   22.3730   29.5695 H      94  UNL94       0.0521
    563 H          -1.2383   22.3881   30.9159 H      94  UNL94       0.0521
    564 H          -2.1886   24.6523   29.4832 H      94  UNL94       0.2090
    565 O          -1.9835   22.8901   34.6951 O.3    95  UNL95      -0.3982
    566 C          -1.8956   23.5565   33.4491 C.3    95  UNL95       0.0330
    567 H          -2.3742   22.9503   32.6760 H      95  UNL95       0.0521
    568 H          -0.8454   23.7239   33.1978 H      95  UNL95       0.0521
    569 H          -2.4078   24.5186   33.5239 H      95  UNL95       0.0521
    570 H          -1.5205   22.0405   34.5980 H      95  UNL95       0.2090
    571 O          -1.6955   23.2592   37.7447 O.3    96  UNL96      -0.3982
    572 C          -1.4907   24.6015   37.3437 C.3    96  UNL96       0.0330
    573 H          -0.6770   24.6452   36.6156 H      96  UNL96       0.0521
    574 H          -1.2452   25.2102   38.2174 H      96  UNL96       0.0521
    575 H          -2.4076   24.9792   36.8853 H      96  UNL96       0.0521
    576 H          -0.8656   22.9516   38.1476 H      96  UNL96       0.2090
    577 O          -0.5642   28.2929   -1.4604 O.3    97  UNL97      -0.3982
    578 C          -1.7453   28.9341   -1.0150 C.3    97  UNL97       0.0330
    579 H          -2.4071   28.1989   -0.5504 H      97  UNL97       0.0521
    580 H          -2.2465   29.4066   -1.8632 H      97  UNL97       0.0521
    581 H          -1.4796   29.6976   -0.2801 H      97  UNL97       0.0521
    582 H          -0.8316   27.6214   -2.1109 H      97  UNL97       0.2090
    583 O          -2.0132   28.6196    1.7755 O.3    98  UNL98      -0.3982
    584 C          -1.8305   27.2187    1.6830 C.3    98  UNL98       0.0330
    585 H          -2.1813   26.7431    2.6023 H      98  UNL98       0.0521
    586 H          -0.7717   26.9980    1.5271 H      98  UNL98       0.0521
    587 H          -2.4079   26.8402    0.8363 H      98  UNL98       0.0521
    588 H          -1.4894   28.9265    2.5350 H      98  UNL98       0.2090
    589 O          -1.8563   29.1631    4.7026 O.3    99  UNL99      -0.3982
    590 C          -1.8717   28.3676    5.8737 C.3    99  UNL99       0.0330
    591 H          -2.3810   28.9078    6.6756 H      99  UNL99       0.0521
    592 H          -0.8462   28.1350    6.1707 H      99  UNL99       0.0521
    593 H          -2.4078   27.4388    5.6653 H      99  UNL99       0.0521
    594 H          -1.3743   29.9796    4.9182 H      99  UNL99       0.2090
    595 O           0.8175   27.0059    7.8508 O.3   100  UNL100     -0.3982
    596 C          -0.3230   27.2085    8.6648 C.3   100  UNL100      0.0330
    597 H          -0.2690   26.5545    9.5387 H     100  UNL100      0.0521
    598 H          -1.2260   26.9912    8.0890 H     100  UNL100      0.0521
    599 H          -0.3448   28.2504    8.9929 H     100  UNL100      0.0521
    600 H           0.8097   26.0734    7.5751 H     100  UNL100      0.2090
    601 O          -1.9787   27.8849   12.9220 O.3   101  UNL101     -0.3982
    602 C          -1.6579   27.6611   11.5613 C.3   101  UNL101      0.0330
    603 H          -2.4073   27.0044   11.1125 H     101  UNL101      0.0521
    604 H          -0.6679   27.2042   11.4899 H     101  UNL101      0.0521
    605 H          -1.6536   28.6185   11.0351 H     101  UNL101      0.0521
    606 H          -1.9748   27.0182   13.3628 H     101  UNL101      0.2090
    607 O          -2.4077   28.3645   16.8491 O.3   102  UNL102     -0.3982
    608 C          -1.6940   29.1247   15.8914 C.3   102  UNL102      0.0330
    609 H          -2.0857   28.9149   14.8930 H     102  UNL102      0.0521
    610 H          -0.6327   28.8689   15.9393 H     102  UNL102      0.0521
    611 H          -1.8210   30.1866   16.1145 H     102  UNL102      0.0521
    612 H          -2.2763   27.4273   16.6255 H     102  UNL102      0.2090
    613 O          -0.0270   26.8834   17.5165 O.3   103  UNL103     -0.3982
    614 C          -0.7273   26.8016   18.7442 C.3   103  UNL103      0.0330
    615 H          -0.2287   26.0856   19.4022 H     103  UNL103      0.0521
    616 H          -1.7565   26.4855   18.5572 H     103  UNL103      0.0521
    617 H          -0.7313   27.7864   19.2172 H     103  UNL103      0.0521
    618 H          -0.0402   25.9955   17.1203 H     103  UNL103      0.2090
    619 O          -2.2213   28.5608   22.6477 O.3   104  UNL104     -0.3982
    620 C          -1.5873   28.6207   21.3832 C.3   104  UNL104      0.0330
    621 H          -2.2542   28.2112   20.6204 H     104  UNL104      0.0521
    622 H          -0.6567   28.0488   21.4138 H     104  UNL104      0.0521
    623 H          -1.3638   29.6636   21.1469 H     104  UNL104      0.0521
    624 H          -2.4071   27.6239   22.8300 H     104  UNL104      0.2090
    625 O          -0.3800   26.6402   26.1733 O.3   105  UNL105     -0.3982
    626 C          -1.3654   26.9306   25.1990 C.3   105  UNL105      0.0330
    627 H          -2.3388   27.0370   25.6843 H     105  UNL105      0.0521
    628 H          -1.3997   26.1241   24.4626 H     105  UNL105      0.0521
    629 H          -1.1057   27.8667   24.6991 H     105  UNL105      0.0521
    630 H          -0.6373   25.8050   26.5996 H     105  UNL105      0.2090
    631 O          -2.4070   27.7994   29.7518 O.3   106  UNL106     -0.3982
    632 C          -1.7194   27.7207   28.5167 C.3   106  UNL106      0.0330
    633 H          -2.2242   27.0056   27.8625 H     106  UNL106      0.0521
    634 H          -0.6881   27.4049   28.6924 H     106  UNL106      0.0521
    635 H          -1.7210   28.7064   28.0456 H     106  UNL106      0.0521
    636 H          -2.3890   26.9107   30.1460 H     106  UNL106      0.2090
    637 O          -1.1653   27.6005   33.9457 O.3   107  UNL107     -0.3982
    638 C          -1.3557   26.9051   32.7272 C.3   107  UNL107      0.0330
    639 H          -1.0568   27.5432   31.8918 H     107  UNL107      0.0521
    640 H          -2.4070   26.6245   32.6273 H     107  UNL107      0.0521
    641 H          -0.7391   26.0032   32.7327 H     107  UNL107      0.0521
    642 H          -1.7245   28.3952   33.9115 H     107  UNL107      0.2090
    643 O          -1.6955   29.0008   37.5318 O.3   108  UNL108     -0.3982
    644 C          -1.4907   27.5999   37.5318 C.3   108  UNL108      0.0330
    645 H          -0.6770   27.3496   38.2170 H     108  UNL108      0.0521
    646 H          -1.2452   27.2667   36.5205 H     108  UNL108      0.0521
    647 H          -2.4076   27.1068   37.8630 H     108  UNL108      0.0521
    648 H          -0.8656   29.4108   37.2338 H     108  UNL108      0.2090
    649 O          -1.7404   32.2532   -2.0343 O.3   109  UNL109     -0.3982
    650 C          -1.0374   32.2063   -0.8063 C.3   109  UNL109      0.0330
    651 H          -0.3531   31.3543   -0.8094 H     109  UNL109      0.0521
    652 H          -1.7483   32.1133    0.0183 H     109  UNL109      0.0521
    653 H          -0.4655   33.1297   -0.6889 H     109  UNL109      0.0521
    654 H          -2.2381   31.4213   -2.1105 H     109  UNL109      0.2090
    655 O          -1.3029   32.7610    2.3099 O.3   110  UNL110     -0.3982
    656 C          -1.4782   31.3675    2.4888 C.3   110  UNL110      0.0330
    657 H          -1.8295   30.9207    1.5554 H     110  UNL110      0.0521
    658 H          -2.2043   31.1902    3.2859 H     110  UNL110      0.0521
    659 H          -0.5202   30.9215    2.7658 H     110  UNL110      0.0521
    660 H          -2.1690   33.1289    2.0650 H     110  UNL110      0.2090
    661 O          -1.5622   32.6950    5.1454 O.3   111  UNL111     -0.3982
    662 C          -0.2354   32.3217    5.4692 C.3   111  UNL111      0.0330
    663 H           0.0317   31.4129    4.9242 H     111  UNL111      0.0521
    664 H          -0.1566   32.1504    6.5455 H     111  UNL111      0.0521
    665 H           0.4414   33.1293    5.1806 H     111  UNL111      0.0521
    666 H          -2.1393   31.9595    5.4128 H     111  UNL111      0.2090
    667 O          -2.4068   29.8941    9.1080 O.3   112  UNL112     -0.3982
    668 C          -1.7639   30.9405    8.4036 C.3   112  UNL112      0.0330
    669 H          -2.1434   30.9786    7.3795 H     112  UNL112      0.0521
    670 H          -0.6850   30.7677    8.3976 H     112  UNL112      0.0521
    671 H          -1.9761   31.8883    8.9039 H     112  UNL112      0.0521
    672 H          -2.2005   29.0665    8.6410 H     112  UNL112      0.2090
    673 O          -1.5135   31.2719   11.6313 O.3   113  UNL113     -0.3982
    674 C          -1.6051   32.6823   11.5483 C.3   113  UNL113      0.0330
    675 H          -1.8307   32.9738   10.5194 H     113  UNL113      0.0521
    676 H          -0.6598   33.1290   11.8658 H     113  UNL113      0.0521
    677 H          -2.4069   33.0257   12.2061 H     113  UNL113      0.0521
    678 H          -0.7943   30.9969   11.0375 H     113  UNL113      0.2090
    679 O          -1.6079   32.5066   16.1972 O.3   114  UNL114     -0.3982
    680 C          -1.1601   32.2883   14.8720 C.3   114  UNL114      0.0330
    681 H          -0.5839   31.3606   14.8292 H     114  UNL114      0.0521
    682 H          -0.5404   33.1297   14.5526 H     114  UNL114      0.0521
    683 H          -2.0275   32.2065   14.2128 H     114  UNL114      0.0521
    684 H          -0.8168   32.5749   16.7585 H     114  UNL114      0.2090
    685 O          -2.2519   32.5319   19.1947 O.3   115  UNL115     -0.3982
    686 C          -1.7333   31.2208   19.0651 C.3   115  UNL115      0.0330
    687 H          -0.7467   31.1704   19.5324 H     115  UNL115      0.0521
    688 H          -1.6606   30.9598   18.0065 H     115  UNL115      0.0521
    689 H          -2.4071   30.5212   19.5652 H     115  UNL115      0.0521
    690 H          -1.6333   33.1299   18.7417 H     115  UNL115      0.2090
    691 O          -2.2014   32.7605   23.2907 O.3   116  UNL116     -0.3982
    692 C          -1.9413   31.3687   23.2896 C.3   116  UNL116      0.0330
    693 H          -2.3631   30.9176   24.1911 H     116  UNL116      0.0521
    694 H          -0.8625   31.1988   23.2547 H     116  UNL116      0.0521
    695 H          -2.4071   30.9210   22.4086 H     116  UNL116      0.0521
    696 H          -1.7760   33.1299   24.0833 H     116  UNL116      0.2090
    697 O           0.1602   31.2563   25.8026 O.3   117  UNL117     -0.3982
    698 C          -0.0156   32.6573   25.9076 C.3   117  UNL117      0.0330
    699 H           0.2409   33.1299   24.9562 H     117  UNL117      0.0521
    700 H           0.6231   33.0468   26.7041 H     117  UNL117      0.0521
    701 H          -1.0608   32.8673   26.1462 H     117  UNL117      0.0521
    702 H           1.0964   31.1010   25.5905 H     117  UNL117      0.2090
    703 O          -1.6565   32.5860   28.9557 O.3   118  UNL118     -0.3982
    704 C          -1.8119   31.3158   28.3500 C.3   118  UNL118      0.0330
    705 H          -0.8298   30.8618   28.1963 H     118  UNL118      0.0521
    706 H          -2.3270   31.4281   27.3929 H     118  UNL118      0.0521
    707 H          -2.4065   30.6784   29.0087 H     118  UNL118      0.0521
    708 H          -1.1253   33.1290   28.3486 H     118  UNL118      0.2090
    709 O          -2.1537   32.1858   33.4544 O.3   119  UNL119     -0.3982
    710 C          -1.9253   31.8630   32.0950 C.3   119  UNL119      0.0330
    711 H          -2.3509   30.8805   31.8763 H     119  UNL119      0.0521
    712 H          -0.8509   31.8589   31.8961 H     119  UNL119      0.0521
    713 H          -2.4073   32.6147   31.4655 H     119  UNL119      0.0521
    714 H          -1.7146   31.5018   33.9882 H     119  UNL119      0.2090
    715 O           0.5970   31.2470   37.3864 O.3   120  UNL120     -0.3982
    716 C          -0.0568   32.4776   37.6364 C.3   120  UNL120      0.0330
    717 H          -0.3139   32.9542   36.6872 H     120  UNL120      0.0521
    718 H           0.6008   33.1291   38.2171 H     120  UNL120      0.0521
    719 H          -0.9701   32.2858   38.2044 H     120  UNL120      0.0521
    720 H           1.4031   31.4491   36.8814 H     120  UNL120      0.2090
    721 O           3.7977   -1.0995   -2.0604 O.3   121  UNL121     -0.3982
    722 C           4.6450   -1.0995   -0.9261 C.3   121  UNL121      0.0330
    723 H           5.4126   -1.8685   -1.0435 H     121  UNL121      0.0521
    724 H           4.0534   -1.2942   -0.0283 H     121  UNL121      0.0521
    725 H           5.1230   -0.1209   -0.8396 H     121  UNL121      0.0521
    726 H           3.3880   -1.9799   -2.1109 H     121  UNL121      0.2090
    727 O           2.2653   -0.7980    1.4958 O.3   122  UNL122     -0.3982
    728 C           2.4381   -1.2184    2.8366 C.3   122  UNL122      0.0330
    729 H           1.5027   -1.6428    3.2098 H     122  UNL122      0.0521
    730 H           2.7345   -0.3651    3.4516 H     122  UNL122      0.0521
    731 H           3.2209   -1.9797    2.8722 H     122  UNL122      0.0521
    732 H           1.5652   -0.1231    1.4959 H     122  UNL122      0.2090
    733 O           2.8779   -1.9121    7.2929 O.3   123  UNL123     -0.3982
    734 C           2.5226   -1.5593    5.9686 C.3   123  UNL123      0.0330
    735 H           3.2512   -1.9793    5.2707 H     123  UNL123      0.0521
    736 H           2.4977   -0.4709    5.8748 H     123  UNL123      0.0521
    737 H           1.5327   -1.9647    5.7463 H     123  UNL123      0.0521
    738 H           3.7599   -1.5389    7.4611 H     123  UNL123      0.2090
    739 O           3.0039    0.1110    9.8221 O.3   124  UNL124     -0.3982
    740 C           1.5979    0.0546    9.6656 C.3   124  UNL124      0.0330
    741 H           1.2039   -0.8068   10.2106 H     124  UNL124      0.0521
    742 H           1.3516   -0.0285    8.6042 H     124  UNL124      0.0521
    743 H           1.1585    0.9700   10.0687 H     124  UNL124      0.0521
    744 H           3.3654   -0.7140    9.4557 H     124  UNL124      0.2090
    745 O           1.3297   -0.1115   12.7334 O.3   125  UNL125     -0.3982
    746 C           1.4239   -1.5203   12.8378 C.3   125  UNL125      0.0330
    747 H           0.5431   -1.9800   12.3826 H     125  UNL125      0.0521
    748 H           1.4936   -1.8047   13.8905 H     125  UNL125      0.0521
    749 H           2.3206   -1.8563   12.3118 H     125  UNL125      0.0521
    750 H           0.5253    0.1571   13.2092 H     125  UNL125      0.2090
    751 O           0.9926    0.9930   16.0963 O.3   126  UNL126     -0.3982
    752 C           1.9489    0.2067   16.7831 C.3   126  UNL126      0.0330
    753 H           2.9537    0.5677   16.5503 H     126  UNL126      0.0521
    754 H           1.8467   -0.8386   16.4814 H     126  UNL126      0.0521
    755 H           1.7732    0.2921   17.8580 H     126  UNL126      0.0521
    756 H           1.1735    0.8972   15.1457 H     126  UNL126      0.2090
    757 O           3.4100   -1.4125   20.8774 O.3   127  UNL127     -0.3982
    758 C           3.3756   -1.4125   19.4620 C.3   127  UNL127      0.0330
    759 H           4.2264   -1.9793   19.0759 H     127  UNL127      0.0521
    760 H           3.4131   -0.3837   19.0958 H     127  UNL127      0.0521
    761 H           2.4468   -1.8818   19.1293 H     127  UNL127      0.0521
    762 H           4.2448   -0.9904   21.1429 H     127  UNL127      0.2090
    763 O           1.4168    1.4189   23.9459 O.3   128  UNL128     -0.3982
    764 C           2.7881    1.1389   23.7326 C.3   128  UNL128      0.0330
    765 H           2.9992    0.1061   24.0211 H     128  UNL128      0.0521
    766 H           3.3976    1.8256   24.3250 H     128  UNL128      0.0521
    767 H           3.0176    1.2731   22.6730 H     128  UNL128      0.0521
    768 H           1.2433    1.2915   24.8942 H     128  UNL128      0.2090
    769 O           2.0194   -0.0684   26.8646 O.3   129  UNL129     -0.3982
    770 C           1.9044   -1.4693   26.6952 C.3   129  UNL129      0.0330
    771 H           0.8482   -1.7488   26.6703 H     129  UNL129      0.0521
    772 H           2.4080   -1.9794   27.5199 H     129  UNL129      0.0521
    773 H           2.3765   -1.7530   25.7516 H     129  UNL129      0.0521
    774 H           1.5920    0.1533   27.7094 H     129  UNL129      0.2090
    775 O           3.2228    0.7520   30.8870 O.3   130  UNL130     -0.3982
    776 C           1.8196    0.7905   30.7024 C.3   130  UNL130      0.0330
    777 H           1.5147    1.8038   30.4294 H     130  UNL130      0.0521
    778 H           1.3213    0.4848   31.6255 H     130  UNL130      0.0521
    779 H           1.5479    0.1018   29.8990 H     130  UNL130      0.0521
    780 H           3.4336    1.3725   31.6054 H     130  UNL130      0.2090
    781 O           2.5900   -1.4941   32.8084 O.3   131  UNL131     -0.3982
    782 C           2.0203   -1.0889   34.0395 C.3   131  UNL131      0.0330
    783 H           2.7219   -0.4413   34.5711 H     131  UNL131      0.0521
    784 H           1.7918   -1.9702   34.6438 H     131  UNL131      0.0521
    785 H           1.0984   -0.5376   33.8400 H     131  UNL131      0.0521
    786 H           3.4057   -1.9804   33.0174 H     131  UNL131      0.2090
    787 O           1.3881   -1.7072   37.6940 O.3   132  UNL132     -0.3982
    788 C           1.5632   -0.3525   37.3214 C.3   132  UNL132      0.0330
    789 H           2.4347   -0.2631   36.6681 H     132  UNL132      0.0521
    790 H           1.7019    0.2576   38.2172 H     132  UNL132      0.0521
    791 H           0.6732   -0.0133   36.7864 H     132  UNL132      0.0521
    792 H           2.1930   -1.9799   38.1665 H     132  UNL132      0.2090
    793 O           3.0032    2.2714   -0.2477 O.3   133  UNL133     -0.3982
    794 C           3.3719    2.4749   -1.5994 C.3   133  UNL133      0.0330
    795 H           2.5874    3.0379   -2.1113 H     133  UNL133      0.0521
    796 H           3.5191    1.5084   -2.0873 H     133  UNL133      0.0521
    797 H           4.3048    3.0426   -1.6316 H     133  UNL133      0.0521
    798 H           2.1727    1.7656   -0.2512 H     133  UNL133      0.2090
    799 O           3.6087    4.3233    3.4301 O.3   134  UNL134     -0.3982
    800 C           2.7594    3.2123    3.2088 C.3   134  UNL134      0.0330
    801 H           1.9947    3.1761    3.9886 H     134  UNL134      0.0521
    802 H           3.3501    2.2931    3.2198 H     134  UNL134      0.0521
    803 H           2.2780    3.3218    2.2342 H     134  UNL134      0.0521
    804 H           4.0215    4.1982    4.3016 H     134  UNL134      0.2090
    805 O           3.3976    2.8438    7.0684 O.3   135  UNL135     -0.3982
    806 C           2.3246    2.2024    6.4037 C.3   135  UNL135      0.0330
    807 H           2.6958    1.7101    5.5014 H     135  UNL135      0.0521
    808 H           1.5634    2.9412    6.1416 H     135  UNL135      0.0521
    809 H           1.8892    1.4549    7.0710 H     135  UNL135      0.0521
    810 H           3.7635    3.5009    6.4521 H     135  UNL135      0.2090
    811 O           2.8936    3.2405   10.0070 O.3   136  UNL136     -0.3982
    812 C           3.9898    4.0603    9.6454 C.3   136  UNL136      0.0330
    813 H           4.7801    3.4429    9.2112 H     136  UNL136      0.0521
    814 H           4.3640    4.5809   10.5302 H     136  UNL136      0.0521
    815 H           3.6567    4.7938    8.9074 H     136  UNL136      0.0521
    816 H           3.2196    2.6002   10.6622 H     136  UNL136      0.2090
    817 O           2.2132    4.4076   12.4397 O.3   137  UNL137     -0.3982
    818 C           1.7905    3.1602   12.9591 C.3   137  UNL137      0.0330
    819 H           1.5678    2.4779   12.1349 H     137  UNL137      0.0521
    820 H           0.9011    3.3044   13.5772 H     137  UNL137      0.0521
    821 H           2.5924    2.7399   13.5707 H     137  UNL137      0.0521
    822 H           1.4817    4.7559   11.9020 H     137  UNL137      0.2090
    823 O           2.6022    3.6637   16.3458 O.3   138  UNL138     -0.3982
    824 C           3.9682    3.3053   16.2453 C.3   138  UNL138      0.0330
    825 H           4.0537    2.3160   15.7891 H     138  UNL138      0.0521
    826 H           4.4183    3.2993   17.2410 H     138  UNL138      0.0521
    827 H           4.4827    4.0384   15.6196 H     138  UNL138      0.0521
    828 H           2.1720    2.9956   16.9063 H     138  UNL138      0.2090
    829 O           2.0437    2.7189   19.5190 O.3   139  UNL139     -0.3982
    830 C           1.5124    3.9942   19.2096 C.3   139  UNL139      0.0330
    831 H           1.1481    4.4698   20.1237 H     139  UNL139      0.0521
    832 H           0.6952    3.8852   18.4924 H     139  UNL139      0.0521
    833 H           2.3003    4.6103   18.7700 H     139  UNL139      0.0521
    834 H           1.3221    2.1952   19.9071 H     139  UNL139      0.2090
    835 O           1.8548    4.6833   22.9013 O.3   140  UNL140     -0.3982
    836 C           3.2559    4.4881   22.8428 C.3   140  UNL140      0.0330
    837 H           3.4705    3.4305   22.6705 H     140  UNL140      0.0521
    838 H           3.7096    4.8148   23.7816 H     140  UNL140      0.0521
    839 H           3.6628    5.0792   22.0190 H     140  UNL140      0.0521
    840 H           1.5223    4.1469   23.6411 H     140  UNL140      0.2090
    841 O           1.9707    3.7784   26.2421 O.3   141  UNL141     -0.3982
    842 C           1.1649    4.8027   26.7952 C.3   141  UNL141      0.0330
    843 H           0.3414    4.3560   27.3579 H     141  UNL141      0.0521
    844 H           0.7728    5.4324   25.9928 H     141  UNL141      0.0521
    845 H           1.7750    5.4108   27.4674 H     141  UNL141      0.0521
    846 H           1.4025    3.2560   25.6507 H     141  UNL141      0.2090
    847 O           3.1794    3.7173   30.4432 O.3   142  UNL142     -0.3982
    848 C           3.3493    3.4233   29.0687 C.3   142  UNL142      0.0330
    849 H           3.3107    4.3492   28.4895 H     142  UNL142      0.0521
    850 H           2.5600    2.7426   28.7406 H     142  UNL142      0.0521
    851 H           4.3217    2.9464   28.9249 H     142  UNL142      0.0521
    852 H           2.3087    4.1393   30.5396 H     142  UNL142      0.2090
    853 O           2.4928    4.6102   34.6720 O.3   143  UNL143     -0.3982
    854 C           2.4578    3.9737   33.4078 C.3   143  UNL143      0.0330
    855 H           1.5979    4.3370   32.8395 H     143  UNL143      0.0521
    856 H           2.3866    2.8921   33.5454 H     143  UNL143      0.0521
    857 H           3.3763    4.2101   32.8655 H     143  UNL143      0.0521
    858 H           1.6656    4.3823   35.1295 H     143  UNL143      0.2090
    859 O           2.9142    2.8863   37.7514 O.3   144  UNL144     -0.3982
    860 C           1.5174    3.0505   37.5883 C.3   144  UNL144      0.0330
    861 H           0.9890    2.3291   38.2165 H     144  UNL144      0.0521
    862 H           1.2520    2.8995   36.5392 H     144  UNL144      0.0521
    863 H           1.2412    4.0637   37.8895 H     144  UNL144      0.0521
    864 H           3.1292    1.9787   37.4765 H     144  UNL144      0.2090
    865 O           3.6793    6.4536   -1.4434 O.3   145  UNL145     -0.3982
    866 C           4.8409    7.2631   -1.4434 C.3   145  UNL145      0.0330
    867 H           5.6934    6.6787   -1.7981 H     145  UNL145      0.0521
    868 H           5.0315    7.6282   -0.4313 H     145  UNL145      0.0521
    869 H           4.6815    8.1132   -2.1110 H     145  UNL145      0.0521
    870 H           3.8505    5.7083   -0.8428 H     145  UNL145      0.2090
    871 O           3.9648    6.5798    1.4743 O.3   146  UNL146     -0.3982
    872 C           2.5690    6.3821    1.6047 C.3   146  UNL146      0.0330
    873 H           2.0449    6.9640    0.8424 H     146  UNL146      0.0521
    874 H           2.2475    6.6940    2.6014 H     146  UNL146      0.0521
    875 H           2.3459    5.3214    1.4676 H     146  UNL146      0.0521
    876 H           4.1320    7.5293    1.6008 H     146  UNL146      0.2090
    877 O           2.7191    7.5976    6.4310 O.3   147  UNL147     -0.3982
    878 C           3.0337    6.3387    5.8648 C.3   147  UNL147      0.0330
    879 H           2.2581    6.0562    5.1484 H     147  UNL147      0.0521
    880 H           3.1034    5.5891    6.6568 H     147  UNL147      0.0521
    881 H           3.9941    6.4110    5.3490 H     147  UNL147      0.0521
    882 H           1.8626    7.5023    6.8814 H     147  UNL147      0.2090
    883 O           2.9705    8.5250   10.6029 O.3   148  UNL148     -0.3982
    884 C           3.0374    8.3315    9.2020 C.3   148  UNL148      0.0330
    885 H           2.1064    8.6713    8.7414 H     148  UNL148      0.0521
    886 H           3.1974    7.2722    8.9869 H     148  UNL148      0.0521
    887 H           3.8721    8.9122    8.8025 H     148  UNL148      0.0521
    888 H           2.2212    7.9979   10.9287 H     148  UNL148      0.2090
    889 O           4.1911    8.2186   13.1936 O.3   149  UNL149     -0.3982
    890 C           3.6474    6.9118   13.1588 C.3   149  UNL149      0.0330
    891 H           2.5907    6.9484   13.4352 H     149  UNL149      0.0521
    892 H           4.1946    6.2700   13.8534 H     149  UNL149      0.0521
    893 H           3.7433    6.5139   12.1459 H     149  UNL149      0.0521
    894 H           4.0918    8.5452   14.1041 H     149  UNL149      0.2090
    895 O           1.4785    8.0366   16.4040 O.3   150  UNL150     -0.3982
    896 C           2.6076    7.1840   16.4572 C.3   150  UNL150      0.0330
    897 H           3.5095    7.7815   16.6115 H     150  UNL150      0.0521
    898 H           2.6852    6.6220   15.5233 H     150  UNL150      0.0521
    899 H           2.4878    6.4873   17.2902 H     150  UNL150      0.0521
    900 H           1.6133    8.6429   15.6559 H     150  UNL150      0.2090
    901 O           2.5779    8.1442   19.3844 O.3   151  UNL151     -0.3982
    902 C           1.5531    7.2336   19.7381 C.3   151  UNL151      0.0330
    903 H           1.9461    6.4976   20.4440 H     151  UNL151      0.0521
    904 H           1.1843    6.7321   18.8401 H     151  UNL151      0.0521
    905 H           0.7347    7.7844   20.2073 H     151  UNL151      0.0521
    906 H           3.2896    7.6268   18.9707 H     151  UNL151      0.2090
    907 O           2.7653    8.9794   23.4753 O.3   152  UNL152     -0.3982
    908 C           2.4609    7.7159   22.9136 C.3   152  UNL152      0.0330
    909 H           1.6162    7.8152   22.2274 H     152  UNL152      0.0521
    910 H           2.2150    7.0112   23.7116 H     152  UNL152      0.0521
    911 H           3.3326    7.3518   22.3647 H     152  UNL152      0.0521
    912 H           1.9738    9.2767   23.9557 H     152  UNL152      0.2090
    913 O           2.5078    7.5661   26.1727 O.3   153  UNL153     -0.3982
    914 C           3.7558    6.9000   26.1163 C.3   153  UNL153      0.0330
    915 H           4.4663    7.3986   26.7803 H     153  UNL153      0.0521
    916 H           4.1300    6.9117   25.0898 H     153  UNL153      0.0521
    917 H           3.6214    5.8655   26.4410 H     153  UNL153      0.0521
    918 H           2.6586    8.4808   25.8793 H     153  UNL153      0.2090
    919 O           0.8345    7.4083   29.0937 O.3   154  UNL154     -0.3982
    920 C           1.7733    6.7788   29.9463 C.3   154  UNL154      0.0330
    921 H           2.3902    7.5377   30.4340 H     154  UNL154      0.0521
    922 H           2.4023    6.1033   29.3614 H     154  UNL154      0.0521
    923 H           1.2356    6.2064   30.7058 H     154  UNL154      0.0521
    924 H           1.3407    7.9082   28.4309 H     154  UNL154      0.2090
    925 O           0.9533    7.3011   33.4618 O.3   155  UNL155     -0.3982
    926 C           2.3115    7.4104   33.0774 C.3   155  UNL155      0.0330
    927 H           2.5715    6.5812   32.4148 H     155  UNL155      0.0521
    928 H           2.9454    7.3922   33.9673 H     155  UNL155      0.0521
    929 H           2.4563    8.3555   32.5489 H     155  UNL155      0.0521
    930 H           0.8556    6.4535   33.9281 H     155  UNL155      0.2090
    931 O           2.1045    7.4868   37.7761 O.3   156  UNL156     -0.3982
    932 C           1.8424    6.9332   36.4997 C.3   156  UNL156      0.0330
    933 H           1.2139    7.6191   35.9262 H     156  UNL156      0.0521
    934 H           1.3383    5.9707   36.6156 H     156  UNL156      0.0521
    935 H           2.7893    6.7853   35.9753 H     156  UNL156      0.0521
    936 H           1.2463    7.6066   38.2174 H     156  UNL156      0.2090
    937 O           3.6313   11.2653    0.9360 O.3   157  UNL157     -0.3982
    938 C           4.0608   10.0419    0.3673 C.3   157  UNL157      0.0330
    939 H           3.3070    9.2712    0.5463 H     157  UNL157      0.0521
    940 H           5.0131    9.7460    0.8141 H     157  UNL157      0.0521
    941 H           4.1921   10.1771   -0.7088 H     157  UNL157      0.0521
    942 H           3.5235   11.1143    1.8905 H     157  UNL157      0.2090
    943 O           4.4500    8.7126    4.0360 O.3   158  UNL158     -0.3982
    944 C           3.1095    9.0095    3.6903 C.3   158  UNL158      0.0330
    945 H           2.4405    8.2928    4.1731 H     158  UNL158      0.0521
    946 H           2.9926    8.9593    2.6051 H     158  UNL158      0.0521
    947 H           2.8689   10.0181    4.0343 H     158  UNL158      0.0521
    948 H           4.6343    7.8123    3.7183 H     158  UNL158      0.2090
    949 O           2.5629   10.5416    6.5313 O.3   159  UNL159     -0.3982
    950 C           3.9477   10.8347    6.5007 C.3   159  UNL159      0.0330
    951 H           4.1310   11.7862    7.0059 H     159  UNL159      0.0521
    952 H           4.2866   10.8895    5.4633 H     159  UNL159      0.0521
    953 H           4.4906   10.0398    7.0174 H     159  UNL159      0.0521
    954 H           2.1078   11.2638    6.0656 H     159  UNL159      0.2090
    955 O           3.0551   11.3317    9.4835 O.3   160  UNL160     -0.3982
    956 C           1.6404   11.3675    9.5264 C.3   160  UNL160      0.0330
    957 H           1.3157   12.1289   10.2400 H     160  UNL160      0.0521
    958 H           1.2591   10.3877    9.8239 H     160  UNL160      0.0521
    959 H           1.2610   11.6173    8.5327 H     160  UNL160      0.0521
    960 H           3.3624   11.1078   10.3784 H     160  UNL160      0.2090
    961 O           1.2208   10.7670   12.5839 O.3   161  UNL161     -0.3982
    962 C           2.4112   10.7212   13.3490 C.3   161  UNL161      0.0330
    963 H           2.4049    9.8299   13.9813 H     161  UNL161      0.0521
    964 H           2.4826   11.6193   13.9674 H     161  UNL161      0.0521
    965 H           3.2674   10.6789   12.6718 H     161  UNL161      0.0521
    966 H           0.4790   10.8040   13.2115 H     161  UNL161      0.2090
    967 O           1.7157   11.0595   16.5262 O.3   162  UNL162     -0.3982
    968 C           3.1023   10.8011   16.6483 C.3   162  UNL162      0.0330
    969 H           3.5831   11.6288   17.1756 H     162  UNL162      0.0521
    970 H           3.5410   10.6845   15.6543 H     162  UNL162      0.0521
    971 H           3.2432    9.8788   17.2168 H     162  UNL162      0.0521
    972 H           1.6222   11.8830   16.0176 H     162  UNL162      0.2090
    973 O           3.7247   11.0927   19.7546 O.3   163  UNL163     -0.3982
    974 C           2.3408   11.3012   19.9689 C.3   163  UNL163      0.0330
    975 H           1.9145   10.4318   20.4756 H     163  UNL163      0.0521
    976 H           1.8421   11.4578   19.0093 H     163  UNL163      0.0521
    977 H           2.2077   12.1866   20.5950 H     163  UNL163      0.0521
    978 H           3.8112   10.3011   19.1964 H     163  UNL163      0.2090
    979 O           3.6307   12.2663   23.6136 O.3   164  UNL164     -0.3982
    980 C           2.2149   12.2663   23.6136 C.3   164  UNL164      0.0330
    981 H           1.8496   12.1143   22.5948 H     164  UNL164      0.0521
    982 H           1.8497   13.2189   24.0047 H     164  UNL164      0.0521
    983 H           1.8596   11.4531   24.2508 H     164  UNL164      0.0521
    984 H           3.9164   12.9979   23.0403 H     164  UNL164      0.2090
    985 O           2.7718   10.9863   26.3670 O.3   165  UNL165     -0.3982
    986 C           2.8628   10.5607   27.7143 C.3   165  UNL165      0.0330
    987 H           3.3317   11.3446   28.3141 H     165  UNL165      0.0521
    988 H           3.4536    9.6431   27.7683 H     165  UNL165      0.0521
    989 H           1.8570   10.3667   28.0943 H     165  UNL165      0.0521
    990 H           3.6788   11.1506   26.0574 H     165  UNL165      0.2090
    991 O           2.2931   10.5032   30.6580 O.3   166  UNL166     -0.3982
    992 C           1.2931   11.5007   30.5600 C.3   166  UNL166      0.0330
    993 H           0.4307   11.2143   31.1670 H     166  UNL166      0.0521
    994 H           0.9944   11.6170   29.5153 H     166  UNL166      0.0521
    995 H           1.6974   12.4465   30.9284 H     166  UNL166      0.0521
    996 H           1.9054    9.6763   30.3241 H     166  UNL166      0.2090
    997 O           2.3520   10.7810   33.4495 O.3   167  UNL167     -0.3982
    998 C           3.7617   10.7508   33.3219 C.3   167  UNL167      0.0330
    999 H           4.0620    9.8375   32.8023 H     167  UNL167      0.0521
   1000 H           4.2190   10.7855   34.3138 H     167  UNL167      0.0521
   1001 H           4.0848   11.6195   32.7436 H     167  UNL167      0.0521
   1002 H           2.0951    9.9987   33.9668 H     167  UNL167      0.2090
   1003 O           2.2594   10.5688   37.8916 O.3   168  UNL168     -0.3982
   1004 C           2.3582   10.3894   36.4907 C.3   168  UNL168      0.0330
   1005 H           1.3830   10.5660   36.0301 H     168  UNL168      0.0521
   1006 H           2.6959    9.3727   36.2756 H     168  UNL168      0.0521
   1007 H           3.0820   11.1036   36.0912 H     168  UNL168      0.0521
   1008 H           1.6106    9.9219   38.2174 H     168  UNL168      0.2090
   1009 O           2.7855   12.8078   -1.5416 O.3   169  UNL169     -0.3982
   1010 C           3.3113   14.1138   -1.3916 C.3   169  UNL169      0.0330
   1011 H           4.1202   14.2667   -2.1103 H     169  UNL169      0.0521
   1012 H           3.6855   14.2420   -0.3730 H     169  UNL169      0.0521
   1013 H           2.5173   14.8402   -1.5799 H     169  UNL169      0.0521
   1014 H           3.5124   12.1855   -1.3686 H     169  UNL169      0.2090
   1015 O           2.2319   13.5873    1.4390 O.3   170  UNL170     -0.3982
   1016 C           1.5170   14.8025    1.3099 C.3   170  UNL170      0.0330
   1017 H           2.2122   15.6121    1.0744 H     170  UNL170      0.0521
   1018 H           0.9923   15.0185    2.2438 H     170  UNL170      0.0521
   1019 H           0.7898   14.7026    0.5007 H     170  UNL170      0.0521
   1020 H           2.8690   13.7062    2.1640 H     170  UNL170      0.2090
   1021 O           2.4170   13.1542    4.5014 O.3   171  UNL171     -0.3982
   1022 C           2.6014   13.9692    5.6444 C.3   171  UNL171      0.0330
   1023 H           3.5127   14.5610    5.5279 H     171  UNL171      0.0521
   1024 H           2.6746   13.3392    6.5342 H     171  UNL171      0.0521
   1025 H           1.7446   14.6396    5.7447 H     171  UNL171      0.0521
   1026 H           3.1922   12.5706    4.4386 H     171  UNL171      0.2090
   1027 O           2.4341   14.2483    8.7780 O.3   172  UNL172     -0.3982
   1028 C           2.2736   14.8754   10.0372 C.3   172  UNL172      0.0330
   1029 H           1.6958   15.7951    9.9162 H     172  UNL172      0.0521
   1030 H           3.2553   15.1022   10.4601 H     172  UNL172      0.0521
   1031 H           1.7389   14.1971   10.7063 H     172  UNL172      0.0521
   1032 H           2.9113   14.8736    8.2063 H     172  UNL172      0.2090
   1033 O           2.3834   14.0794   12.9670 O.3   173  UNL173     -0.3982
   1034 C           1.2757   14.1844   13.8424 C.3   173  UNL173      0.0330
   1035 H           1.3031   13.3659   14.5660 H     173  UNL173      0.0521
   1036 H           0.3488   14.1436   13.2650 H     173  UNL173      0.0521
   1037 H           1.3306   15.1383   14.3722 H     173  UNL173      0.0521
   1038 H           2.3074   13.2238   12.5113 H     173  UNL173      0.2090
   1039 O           4.0287   14.4137   17.2857 O.3   174  UNL174     -0.3982
   1040 C           3.3590   14.3945   16.0385 C.3   174  UNL174      0.0330
   1041 H           3.9001   15.0194   15.3236 H     174  UNL174      0.0521
   1042 H           2.3396   14.7669   16.1656 H     174  UNL174      0.0521
   1043 H           3.3258   13.3670   15.6688 H     174  UNL174      0.0521
   1044 H           4.0425   15.3377   17.5884 H     174  UNL174      0.2090
   1045 O           3.1804   14.6848   19.8293 O.3   175  UNL175     -0.3982
   1046 C           1.8006   14.6865   19.5120 C.3   175  UNL175      0.0330
   1047 H           1.2437   14.1752   20.3011 H     175  UNL175      0.0521
   1048 H           1.6453   14.1813   18.5556 H     175  UNL175      0.0521
   1049 H           1.4548   15.7200   19.4360 H     175  UNL175      0.0521
   1050 H           3.4585   13.7550   19.8901 H     175  UNL175      0.2090
   1051 O           3.0580   15.3258   24.0510 O.3   176  UNL176     -0.3982
   1052 C           3.1567   15.4033   22.6408 C.3   176  UNL176      0.0330
   1053 H           2.7448   16.3555   22.2975 H     176  UNL176      0.0521
   1054 H           2.6077   14.5729   22.1902 H     176  UNL176      0.0521
   1055 H           4.2091   15.3395   22.3542 H     176  UNL176      0.0521
   1056 H           2.1137   15.3850   24.2750 H     176  UNL176      0.2090
   1057 O           2.8034   13.8174   26.5666 O.3   177  UNL177     -0.3982
   1058 C           1.4307   13.9432   26.8896 C.3   177  UNL177      0.0330
   1059 H           0.8820   14.3073   26.0174 H     177  UNL177      0.0521
   1060 H           1.3141   14.6396   27.7235 H     177  UNL177      0.0521
   1061 H           1.0425   12.9638   27.1787 H     177  UNL177      0.0521
   1062 H           3.1197   14.7016   26.3142 H     177  UNL177      0.2090
   1063 O           3.6423   14.5039   30.8195 O.3   178  UNL178     -0.3982
   1064 C           3.5710   13.9297   29.5274 C.3   178  UNL178      0.0330
   1065 H           3.9473   14.6426   28.7895 H     178  UNL178      0.0521
   1066 H           2.5346   13.6675   29.3009 H     178  UNL178      0.0521
   1067 H           4.1860   13.0270   29.5053 H     178  UNL178      0.0521
   1068 H           3.0872   15.3022   30.8084 H     178  UNL178      0.2090
   1069 O           2.7103   14.1202   33.4777 O.3   179  UNL179     -0.3982
   1070 C           1.3177   14.1692   33.2271 C.3   179  UNL179      0.0330
   1071 H           1.0931   15.0190   32.5777 H     179  UNL179      0.0521
   1072 H           0.7796   14.2676   34.1730 H     179  UNL179      0.0521
   1073 H           1.0131   13.2443   32.7316 H     179  UNL179      0.0521
   1074 H           2.9509   14.9534   33.9174 H     179  UNL179      0.2090
   1075 O           1.7402   13.7557   37.7677 O.3   180  UNL180     -0.3982
   1076 C           2.1238   13.6292   36.4108 C.3   180  UNL180      0.0330
   1077 H           3.0745   13.0939   36.3483 H     180  UNL180      0.0521
   1078 H           2.2225   14.6220   35.9651 H     180  UNL180      0.0521
   1079 H           1.3555   13.0666   35.8753 H     180  UNL180      0.0521
   1080 H           2.4406   14.2588   38.2169 H     180  UNL180      0.2090
   1081 O           3.4020   17.3973   -0.5448 O.3   181  UNL181     -0.3982
   1082 C           2.0732   17.5098   -1.0201 C.3   181  UNL181      0.0330
   1083 H           1.4939   16.6423   -0.6941 H     181  UNL181      0.0521
   1084 H           2.0793   17.5680   -2.1112 H     181  UNL181      0.0521
   1085 H           1.6254   18.4187   -0.6114 H     181  UNL181      0.0521
   1086 H           3.7730   16.5823   -0.9239 H     181  UNL181      0.2090
   1087 O           2.6963   18.3082    3.7290 O.3   182  UNL182     -0.3982
   1088 C           3.0915   16.9500    3.6698 C.3   182  UNL182      0.0330
   1089 H           4.0536   16.8272    4.1735 H     182  UNL182      0.0521
   1090 H           3.1725   16.6383    2.6256 H     182  UNL182      0.0521
   1091 H           2.3387   16.3386    4.1729 H     182  UNL182      0.0521
   1092 H           3.3831   18.8256    3.2749 H     182  UNL182      0.2090
   1093 O           2.6027   18.7188    6.9710 O.3   183  UNL183     -0.3982
   1094 C           2.1196   17.4015    6.7813 C.3   183  UNL183      0.0330
   1095 H           2.9454   16.6922    6.8778 H     183  UNL183      0.0521
   1096 H           1.6671   17.3177    5.7902 H     183  UNL183      0.0521
   1097 H           1.3663   17.1863    7.5427 H     183  UNL183      0.0521
   1098 H           3.2688   18.8809    6.2813 H     183  UNL183      0.2090
   1099 O           2.3150   18.4185    9.8445 O.3   184  UNL184     -0.3982
   1100 C           3.7029   18.1501    9.9221 C.3   184  UNL184      0.0330
   1101 H           4.1350   18.1671    8.9184 H     184  UNL184      0.0521
   1102 H           3.8604   17.1713   10.3817 H     184  UNL184      0.0521
   1103 H           4.1797   18.9188   10.5348 H     184  UNL184      0.0521
   1104 H           1.9193   17.7204    9.2952 H     184  UNL184      0.2090
   1105 O           1.9289   17.0322   12.6685 O.3   185  UNL185     -0.3982
   1106 C           1.6488   18.4193   12.6245 C.3   185  UNL185      0.0330
   1107 H           0.8061   18.6006   11.9527 H     185  UNL185      0.0521
   1108 H           2.5315   18.9591   12.2730 H     185  UNL185      0.0521
   1109 H           1.3911   18.7618   13.6294 H     185  UNL185      0.0521
   1110 H           2.1541   16.7573   11.7634 H     185  UNL185      0.2090
   1111 O           2.9919   17.8205   15.8985 O.3   186  UNL186     -0.3982
   1112 C           1.6136   17.4976   15.9181 C.3   186  UNL186      0.0330
   1113 H           1.4242   16.7510   16.6933 H     186  UNL186      0.0521
   1114 H           1.3158   17.1081   14.9415 H     186  UNL186      0.0521
   1115 H           1.0401   18.4012   16.1377 H     186  UNL186      0.0521
   1116 H           3.4748   16.9998   15.7014 H     186  UNL186      0.2090
   1117 O           2.0896   18.4191   20.1687 O.3   187  UNL187     -0.3982
   1118 C           2.0961   18.2480   18.7633 C.3   187  UNL187      0.0330
   1119 H           1.1421   17.8220   18.4428 H     187  UNL187      0.0521
   1120 H           2.9170   17.5849   18.4799 H     187  UNL187      0.0521
   1121 H           2.2362   19.2215   18.2875 H     187  UNL187      0.0521
   1122 H           1.9638   17.5393   20.5631 H     187  UNL187      0.2090
   1123 O           4.3954   18.4716   23.4584 O.3   188  UNL188     -0.3982
   1124 C           2.9892   18.6313   23.4965 C.3   188  UNL188      0.0330
   1125 H           2.5374   17.7723   23.9989 H     188  UNL188      0.0521
   1126 H           2.6034   18.7153   22.4776 H     188  UNL188      0.0521
   1127 H           2.7499   19.5420   24.0505 H     188  UNL188      0.0521
   1128 H           4.5770   17.6561   22.9608 H     188  UNL188      0.2090
   1129 O           2.2529   17.0791   26.3921 O.3   189  UNL189     -0.3982
   1130 C           1.8454   18.4145   26.6267 C.3   189  UNL189      0.0330
   1131 H           2.6388   18.9516   27.1525 H     189  UNL189      0.0521
   1132 H           0.9307   18.4176   27.2245 H     189  UNL189      0.0521
   1133 H           1.6528   18.9009   25.6676 H     189  UNL189      0.0521
   1134 H           2.4164   16.6735   27.2606 H     189  UNL189      0.2090
   1135 O           2.9367   17.5379   29.4507 O.3   190  UNL190     -0.3982
   1136 C           1.5622   17.4339   29.7736 C.3   190  UNL190      0.0330
   1137 H           1.4344   16.7398   30.6080 H     190  UNL190      0.0521
   1138 H           1.0081   17.0781   28.9016 H     190  UNL190      0.0521
   1139 H           1.1894   18.4195   30.0621 H     190  UNL190      0.0521
   1140 H           3.2391   16.6487   29.1988 H     190  UNL190      0.2090
   1141 O           2.1104   17.9917   32.6443 O.3   191  UNL191     -0.3982
   1142 C           1.1316   17.6711   33.6158 C.3   191  UNL191      0.0330
   1143 H           1.0612   18.4821   34.3449 H     191  UNL191      0.0521
   1144 H           1.4055   16.7394   34.1166 H     191  UNL191      0.0521
   1145 H           0.1664   17.5454   33.1196 H     191  UNL191      0.0521
   1146 H           2.9552   18.0971   33.1140 H     191  UNL191      0.2090
   1147 O           2.8391   17.3655   36.3949 O.3   192  UNL192     -0.3982
   1148 C           2.3751   16.8925   37.6461 C.3   192  UNL192      0.0330
   1149 H           3.2048   16.4427   38.1971 H     192  UNL192      0.0521
   1150 H           1.5861   16.1534   37.4873 H     192  UNL192      0.0521
   1151 H           1.9743   17.7330   38.2173 H     192  UNL192      0.0521
   1152 H           3.1885   16.5979   35.9110 H     192  UNL192      0.2090
   1153 O           4.6861   19.9298   -1.6011 O.3   193  UNL193     -0.3982
   1154 C           4.3221   21.2589   -1.2763 C.3   193  UNL193      0.0330
   1155 H           4.5698   21.9198   -2.1107 H     193  UNL193      0.0521
   1156 H           4.8563   21.5744   -0.3768 H     193  UNL193      0.0521
   1157 H           3.2461   21.2975   -1.0908 H     193  UNL193      0.0521
   1158 H           5.6454   19.9271   -1.7601 H     193  UNL193      0.2090
   1159 O           3.1935   20.8801    1.4023 O.3   194  UNL194     -0.3982
   1160 C           1.7777   20.8801    1.4023 C.3   194  UNL194      0.0330
   1161 H           1.4124   20.4965    2.3582 H     194  UNL194      0.0521
   1162 H           1.4125   20.2555    0.5834 H     194  UNL194      0.0521
   1163 H           1.4224   21.9038    1.2632 H     194  UNL194      0.0521
   1164 H           3.4792   19.9590    1.5274 H     194  UNL194      0.2090
   1165 O           2.4680   20.8679    4.7738 O.3   195  UNL195     -0.3982
   1166 C           2.1172   21.8273    5.7541 C.3   195  UNL195      0.0330
   1167 H           1.3152   22.4638    5.3718 H     195  UNL195      0.0521
   1168 H           2.9919   22.4339    6.0009 H     195  UNL195      0.0521
   1169 H           1.7714   21.3086    6.6512 H     195  UNL195      0.0521
   1170 H           2.7707   21.3576    3.9902 H     195  UNL195      0.2090
   1171 O           3.3632   22.0128   10.3662 O.3   196  UNL196     -0.3982
   1172 C           2.9699   21.6540    9.0543 C.3   196  UNL196      0.0330
   1173 H           3.7121   20.9780    8.6224 H     196  UNL196      0.0521
   1174 H           2.8804   22.5538    8.4409 H     196  UNL196      0.0521
   1175 H           2.0024   21.1486    9.0992 H     196  UNL196      0.0521
   1176 H           4.2242   22.4590   10.2944 H     196  UNL196      0.2090
   1177 O           2.3553   21.5177   12.8705 O.3   197  UNL197     -0.3982
   1178 C           1.0195   21.7400   12.4573 C.3   197  UNL197      0.0330
   1179 H           0.3928   21.9278   13.3327 H     197  UNL197      0.0521
   1180 H           0.6542   20.8642   11.9155 H     197  UNL197      0.0521
   1181 H           0.9916   22.6110   11.7983 H     197  UNL197      0.0521
   1182 H           2.3483   20.7395   13.4533 H     197  UNL197      0.2090
   1183 O           1.7431   22.1969   17.1230 O.3   198  UNL198     -0.3982
   1184 C           1.5330   22.2596   15.7243 C.3   198  UNL198      0.0330
   1185 H           0.4877   22.5065   15.5227 H     198  UNL198      0.0521
   1186 H           1.7844   21.2964   15.2737 H     198  UNL198      0.0521
   1187 H           2.1762   23.0355   15.3028 H     198  UNL198      0.0521
   1188 H           1.1594   21.5003   17.4687 H     198  UNL198      0.2090
   1189 O           2.0918   21.1988   19.7575 O.3   199  UNL199     -0.3982
   1190 C           3.4800   21.3983   19.5633 C.3   199  UNL199      0.0330
   1191 H           3.9331   21.7455   20.4952 H     199  UNL199      0.0521
   1192 H           3.6358   22.1364   18.7727 H     199  UNL199      0.0521
   1193 H           3.9373   20.4507   19.2692 H     199  UNL199      0.0521
   1194 H           1.7136   22.0562   20.0174 H     199  UNL199      0.2090
   1195 O           2.6926   23.2723   23.7425 O.3   200  UNL200     -0.3982
   1196 C           2.4631   23.0322   22.3662 C.3   200  UNL200      0.0330
   1197 H           1.4925   23.4449   22.0802 H     200  UNL200      0.0521
   1198 H           2.4844   21.9566   22.1747 H     200  UNL200      0.0521
   1199 H           3.2494   23.5192   21.7847 H     200  UNL200      0.0521
   1200 H           1.9797   22.8283   24.2327 H     200  UNL200      0.2090
   1201 O           2.4392   21.6464   26.3382 O.3   201  UNL201     -0.3982
   1202 C           1.0402   21.5194   26.5149 C.3   201  UNL201      0.0330
   1203 H           0.8198   20.5747   27.0182 H     201  UNL201      0.0521
   1204 H           0.5449   21.5501   25.5414 H     201  UNL201      0.0521
   1205 H           0.6830   22.3491   27.1294 H     201  UNL201      0.0521
   1206 H           2.7271   20.8969   25.7896 H     201  UNL201      0.2090
   1207 O           2.3042   21.2436   29.2963 O.3   202  UNL202     -0.3982
   1208 C           1.9315   21.4040   30.6527 C.3   202  UNL202      0.0330
   1209 H           0.9491   21.8794   30.7078 H     202  UNL202      0.0521
   1210 H           2.6750   22.0191   31.1654 H     202  UNL202      0.0521
   1211 H           1.8854   20.4210   31.1271 H     202  UNL202      0.0521
   1212 H           2.3368   22.1318   28.9019 H     202  UNL202      0.2090
   1213 O           2.2031   21.1624   33.5903 O.3   203  UNL203     -0.3982
   1214 C           3.5398   20.7085   33.4820 C.3   203  UNL203      0.0330
   1215 H           3.7345   20.3876   32.4556 H     203  UNL203      0.0521
   1216 H           3.7000   19.8764   34.1718 H     203  UNL203      0.0521
   1217 H           4.2151   21.5277   33.7396 H     203  UNL203      0.0521
   1218 H           1.6275   20.4145   33.3559 H     203  UNL203      0.2090
   1219 O           2.4352   20.1089   37.8030 O.3   204  UNL204     -0.3982
   1220 C           2.0899   20.6427   36.5379 C.3   204  UNL204      0.0330
   1221 H           1.3968   21.4772   36.6703 H     204  UNL204      0.0521
   1222 H           1.6269   19.8639   35.9270 H     204  UNL204      0.0521
   1223 H           2.9964   20.9997   36.0436 H     204  UNL204      0.0521
   1224 H           1.6114   19.8005   38.2174 H     204  UNL204      0.2090
   1225 O           3.8749   24.7613   -1.8762 O.3   205  UNL205     -0.3982
   1226 C           2.5897   24.2703   -1.5420 C.3   205  UNL205      0.0330
   1227 H           2.5457   24.0615   -0.4703 H     205  UNL205      0.0521
   1228 H           2.3878   23.3591   -2.1103 H     205  UNL205      0.0521
   1229 H           1.8435   25.0274   -1.7944 H     205  UNL205      0.0521
   1230 H           4.5154   24.0684   -1.6411 H     205  UNL205      0.2090
   1231 O           1.7440   25.2191    3.5223 O.3   206  UNL206     -0.3982
   1232 C           1.5698   23.8781    3.1030 C.3   206  UNL206      0.0330
   1233 H           2.3208   23.2451    3.5822 H     206  UNL206      0.0521
   1234 H           1.6681   23.8195    2.0163 H     206  UNL206      0.0521
   1235 H           0.5724   23.5412    3.3951 H     206  UNL206      0.0521
   1236 H           2.6371   25.4900    3.2495 H     206  UNL206      0.2090
   1237 O           2.3628   24.9471    6.3827 O.3   207  UNL207     -0.3982
   1238 C           3.7622   25.1617    6.3846 C.3   207  UNL207      0.0330
   1239 H           4.2777   24.2122    6.2202 H     207  UNL207      0.0521
   1240 H           4.0645   25.5914    7.3427 H     207  UNL207      0.0521
   1241 H           4.0163   25.8559    5.5801 H     207  UNL207      0.0521
   1242 H           2.1678   24.3278    7.1066 H     207  UNL207      0.2090
   1243 O           2.7978   25.6102    9.6612 O.3   208  UNL208     -0.3982
   1244 C           1.8871   24.6838   10.2240 C.3   208  UNL208      0.0330
   1245 H           2.3497   24.1933   11.0841 H     208  UNL208      0.0521
   1246 H           1.6108   23.9405    9.4722 H     208  UNL208      0.0521
   1247 H           0.9922   25.2188   10.5503 H     208  UNL208      0.0521
   1248 H           3.5811   25.1066    9.3812 H     208  UNL208      0.2090
   1249 O           1.2238   24.7849   13.7267 O.3   209  UNL209     -0.3982
   1250 C           1.4863   26.1442   13.4303 C.3   209  UNL209      0.0330
   1251 H           1.1399   26.3710   12.4189 H     209  UNL209      0.0521
   1252 H           2.5592   26.3349   13.5108 H     209  UNL209      0.0521
   1253 H           0.9519   26.7735   14.1458 H     209  UNL209      0.0521
   1254 H           1.7108   24.2513   13.0758 H     209  UNL209      0.2090
   1255 O           3.5800   25.0515   16.2084 O.3   210  UNL210     -0.3982
   1256 C           4.6448   24.1348   16.0345 C.3   210  UNL210      0.0330
   1257 H           5.4550   24.6167   15.4816 H     210  UNL210      0.0521
   1258 H           4.2871   23.2588   15.4880 H     210  UNL210      0.0521
   1259 H           5.0106   23.8247   17.0161 H     210  UNL210      0.0521
   1260 H           3.2764   25.3085   15.3211 H     210  UNL210      0.2090
   1261 O           2.2839   25.3410   20.4648 O.3   211  UNL211     -0.3982
   1262 C           2.3184   25.0846   19.0728 C.3   211  UNL211      0.0330
   1263 H           3.0230   25.7683   18.5928 H     211  UNL211      0.0521
   1264 H           1.3191   25.2194   18.6518 H     211  UNL211      0.0521
   1265 H           2.6444   24.0548   18.9092 H     211  UNL211      0.0521
   1266 H           1.9914   26.2614   20.5786 H     211  UNL211      0.2090
   1267 O           2.7536   26.4480   23.3177 O.3   212  UNL212     -0.3982
   1268 C           1.3478   26.3563   23.4591 C.3   212  UNL212      0.0330
   1269 H           1.0930   25.4325   23.9844 H     212  UNL212      0.0521
   1270 H           0.8800   26.3675   22.4717 H     212  UNL212      0.0521
   1271 H           0.9924   27.2120   24.0380 H     212  UNL212      0.0521
   1272 H           3.0396   25.6760   22.8002 H     212  UNL212      0.2090
   1273 O           2.0458   24.4974   26.2927 O.3   213  UNL213     -0.3982
   1274 C           3.4090   24.4297   26.6693 C.3   213  UNL213      0.0330
   1275 H           3.4868   24.0596   27.6946 H     213  UNL213      0.0521
   1276 H           3.8584   25.4229   26.5941 H     213  UNL213      0.0521
   1277 H           3.9299   23.7446   25.9964 H     213  UNL213      0.0521
   1278 H           1.6099   25.1122   26.9071 H     213  UNL213      0.2090
   1279 O           1.8748   24.5599   30.3022 O.3   214  UNL214     -0.3982
   1280 C           0.9910   25.4260   29.6142 C.3   214  UNL214      0.0330
   1281 H           1.5552   26.0329   28.9017 H     214  UNL214      0.0521
   1282 H           0.4784   26.0705   30.3325 H     214  UNL214      0.0521
   1283 H           0.2538   24.8263   29.0752 H     214  UNL214      0.0521
   1284 H           2.5168   25.1201   30.7706 H     214  UNL214      0.2090
   1285 O           3.1082   25.0788   33.3229 O.3   215  UNL215     -0.3982
   1286 C           1.7320   24.7808   33.4706 C.3   215  UNL215      0.0330
   1287 H           1.3612   25.2189   34.4006 H     215  UNL215      0.0521
   1288 H           1.5924   23.6972   33.4847 H     215  UNL215      0.0521
   1289 H           1.1839   25.2056   32.6264 H     215  UNL215      0.0521
   1290 H           3.5683   24.6894   34.0859 H     215  UNL215      0.2090
   1291 O           1.5265   24.0056   38.0037 O.3   216  UNL216     -0.3982
   1292 C           2.0037   24.0117   36.6707 C.3   216  UNL216      0.0330
   1293 H           1.2169   23.6587   35.9994 H     216  UNL216      0.0521
   1294 H           2.8806   23.3644   36.5938 H     216  UNL216      0.0521
   1295 H           2.2818   25.0323   36.3976 H     216  UNL216      0.0521
   1296 H           1.2877   23.0875   38.2174 H     216  UNL216      0.2090
   1297 O           2.6145   27.4657   -1.2467 O.3   217  UNL217     -0.3982
   1298 C           2.5699   28.8752   -1.1205 C.3   217  UNL217      0.0330
   1299 H           1.7149   29.1597   -0.5021 H     217  UNL217      0.0521
   1300 H           2.4835   29.3280   -2.1111 H     217  UNL217      0.0521
   1301 H           3.4914   29.2186   -0.6445 H     217  UNL217      0.0521
   1302 H           1.7844   27.1906   -1.6719 H     217  UNL217      0.2090
   1303 O           3.1751   28.3006    1.8580 O.3   218  UNL218     -0.3982
   1304 C           1.8620   27.7799    1.9538 C.3   218  UNL218      0.0330
   1305 H           1.1573   28.4799    1.4980 H     218  UNL218      0.0521
   1306 H           1.6073   27.6225    3.0047 H     218  UNL218      0.0521
   1307 H           1.8186   26.8256    1.4238 H     218  UNL218      0.0521
   1308 H           3.1827   29.1466    2.3372 H     218  UNL218      0.2090
   1309 O           1.2783   29.6033    6.0302 O.3   219  UNL219     -0.3982
   1310 C           2.1929   28.7242    5.4015 C.3   219  UNL219      0.0330
   1311 H           1.7864   27.7098    5.4058 H     219  UNL219      0.0521
   1312 H           3.1470   28.7481    5.9337 H     219  UNL219      0.0521
   1313 H           2.3456   29.0489    4.3696 H     219  UNL219      0.0521
   1314 H           1.1629   29.2901    6.9435 H     219  UNL219      0.2090
   1315 O           3.3772   28.8709    8.4958 O.3   220  UNL220     -0.3982
   1316 C           2.7212   28.9125    9.7498 C.3   220  UNL220      0.0330
   1317 H           1.6473   28.7710    9.6051 H     220  UNL220      0.0521
   1318 H           2.9112   29.8756   10.2296 H     220  UNL220      0.0521
   1319 H           3.1104   28.1103   10.3812 H     220  UNL220      0.0521
   1320 H           3.0114   29.5936    7.9579 H     220  UNL220      0.2090
   1321 O           2.3472   29.4401   12.7449 O.3   221  UNL221     -0.3982
   1322 C           0.9410   29.4210   12.5818 C.3   221  UNL221      0.0330
   1323 H           0.4987   28.7313   13.3049 H     221  UNL221      0.0521
   1324 H           0.6955   29.1063   11.5646 H     221  UNL221      0.0521
   1325 H           0.5497   30.4264   12.7541 H     221  UNL221      0.0521
   1326 H           2.6655   28.5351   12.5859 H     221  UNL221      0.2090
   1327 O           2.9257   27.8588   15.4844 O.3   222  UNL222     -0.3982
   1328 C           3.0281   29.2640   15.6235 C.3   222  UNL222      0.0330
   1329 H           3.7949   29.6435   14.9436 H     222  UNL222      0.0521
   1330 H           3.2869   29.5109   16.6560 H     222  UNL222      0.0521
   1331 H           2.0659   29.7169   15.3731 H     222  UNL222      0.0521
   1332 H           3.7938   27.4851   15.7130 H     222  UNL222      0.2090
   1333 O           3.3042   28.7211   18.9297 O.3   223  UNL223     -0.3982
   1334 C           1.8979   28.8852   18.9297 C.3   223  UNL223      0.0330
   1335 H           1.4459   28.1638   19.6149 H     223  UNL223      0.0521
   1336 H           1.5126   28.7342   17.9184 H     223  UNL223      0.0521
   1337 H           1.6585   29.8984   19.2609 H     223  UNL223      0.0521
   1338 H           3.4859   27.8135   18.6317 H     223  UNL223      0.2090
   1339 O           2.8692   29.2962   21.6935 O.3   224  UNL224     -0.3982
   1340 C           3.2336   29.3199   23.0614 C.3   224  UNL224      0.0330
   1341 H           4.0736   28.6409   23.2275 H     224  UNL224      0.0521
   1342 H           2.3798   29.0166   23.6722 H     224  UNL224      0.0521
   1343 H           3.5301   30.3359   23.3325 H     224  UNL224      0.0521
   1344 H           2.6111   28.3827   21.4824 H     224  UNL224      0.2090
   1345 O           2.3316   27.3882   26.2811 O.3   225  UNL225     -0.3982
   1346 C           1.6905   28.6473   26.3713 C.3   225  UNL225      0.0330
   1347 H           2.4022   29.3947   26.7306 H     225  UNL225      0.0521
   1348 H           0.8425   28.5770   27.0568 H     225  UNL225      0.0521
   1349 H           1.3321   28.9353   25.3803 H     225  UNL225      0.0521
   1350 H           2.6387   27.1592   27.1749 H     225  UNL225      0.2090
   1351 O           2.6834   29.8843   29.4705 O.3   226  UNL226     -0.3982
   1352 C           1.9330   28.7409   29.8367 C.3   226  UNL226      0.0330
   1353 H           2.4738   28.1788   30.6021 H     226  UNL226      0.0521
   1354 H           1.7694   28.1142   28.9567 H     226  UNL226      0.0521
   1355 H           0.9686   29.0622   30.2369 H     226  UNL226      0.0521
   1356 H           3.5331   29.5679   29.1192 H     226  UNL226      0.2090
   1357 O           2.6683   29.4202   33.2222 O.3   227  UNL227     -0.3982
   1358 C           1.3377   28.9397   33.1661 C.3   227  UNL227      0.0330
   1359 H           1.3462   27.8517   33.0633 H     227  UNL227      0.0521
   1360 H           0.8214   29.3926   32.3162 H     227  UNL227      0.0521
   1361 H           0.8223   29.2122   34.0901 H     227  UNL227      0.0521
   1362 H           3.1001   29.1635   32.3896 H     227  UNL227      0.2090
   1363 O           1.6118   28.1968   37.8139 O.3   228  UNL228     -0.3982
   1364 C           1.8165   28.1968   36.4130 C.3   228  UNL228      0.0330
   1365 H           2.7203   27.6300   36.1759 H     228  UNL228      0.0521
   1366 H           1.9153   29.2256   36.0584 H     228  UNL228      0.0521
   1367 H           0.9572   27.7276   35.9283 H     228  UNL228      0.0521
   1368 H           2.3898   28.6190   38.2164 H     228  UNL228      0.2090
   1369 O           1.8291   32.1509   -2.0604 O.3   229  UNL229     -0.3982
   1370 C           2.6764   32.1509   -0.9261 C.3   229  UNL229      0.0330
   1371 H           3.4440   31.3819   -1.0435 H     229  UNL229      0.0521
   1372 H           2.0847   31.9562   -0.0283 H     229  UNL229      0.0521
   1373 H           3.1544   33.1295   -0.8396 H     229  UNL229      0.0521
   1374 H           1.4194   31.2705   -2.1109 H     229  UNL229      0.2090
   1375 O           3.1578   31.9500    2.1933 O.3   230  UNL230     -0.3982
   1376 C           2.2346   32.2156    3.2333 C.3   230  UNL230      0.0330
   1377 H           2.2313   31.3825    3.9405 H     230  UNL230      0.0521
   1378 H           1.2366   32.3519    2.8097 H     230  UNL230      0.0521
   1379 H           2.5360   33.1292    3.7512 H     230  UNL230      0.0521
   1380 H           2.8645   31.1346    1.7523 H     230  UNL230      0.2090
   1381 O           2.8445   32.2304    6.2057 O.3   231  UNL231     -0.3982
   1382 C           4.2213   32.4552    5.9642 C.3   231  UNL231      0.0330
   1383 H           4.6207   33.1289    6.7263 H     231  UNL231      0.0521
   1384 H           4.3512   32.8929    4.9714 H     231  UNL231      0.0521
   1385 H           4.7507   31.5006    6.0112 H     231  UNL231      0.0521
   1386 H           2.4012   33.0946    6.1576 H     231  UNL231      0.2090
   1387 O           3.0361   32.2738    9.5320 O.3   232  UNL232     -0.3982
   1388 C           1.6306   32.3115    9.6983 C.3   232  UNL232      0.0330
   1389 H           1.2794   31.3419   10.0601 H     232  UNL232      0.0521
   1390 H           1.1561   32.5496    8.7432 H     232  UNL232      0.0521
   1391 H           1.3799   33.0834   10.4296 H     232  UNL232      0.0521
   1392 H           3.2280   31.5803    8.8781 H     232  UNL232      0.2090
   1393 O           4.7920   32.7995   12.4654 O.3   233  UNL233     -0.3982
   1394 C           4.7227   31.3854   12.4621 C.3   233  UNL233      0.0330
   1395 H           4.0902   31.0527   11.6354 H     233  UNL233      0.0521
   1396 H           4.3110   31.0378   13.4127 H     233  UNL233      0.0521
   1397 H           5.7293   30.9807   12.3338 H     233  UNL233      0.0521
   1398 H           3.8848   33.1298   12.5809 H     233  UNL233      0.2090
   1399 O           2.2841   32.2014   14.5718 O.3   234  UNL234     -0.3982
   1400 C           2.0889   32.5144   15.9387 C.3   234  UNL234      0.0330
   1401 H           2.0522   31.5917   16.5231 H     234  UNL234      0.0521
   1402 H           1.1556   33.0702   16.0565 H     234  UNL234      0.0521
   1403 H           2.9229   33.1294   16.2849 H     234  UNL234      0.0521
   1404 H           1.5291   31.6556   14.2931 H     234  UNL234      0.2090
   1405 O           4.3912   31.1708   19.5651 O.3   235  UNL235     -0.3982
   1406 C           3.7081   32.4026   19.7089 C.3   235  UNL235      0.0330
   1407 H           4.2984   33.0768   20.3343 H     235  UNL235      0.0521
   1408 H           2.7308   32.2271   20.1652 H     235  UNL235      0.0521
   1409 H           3.5717   32.8505   18.7219 H     235  UNL235      0.0521
   1410 H           4.4975   30.7973   20.4566 H     235  UNL235      0.2090
   1411 O           2.6171   32.7611   22.6007 O.3   236  UNL236     -0.3982
   1412 C           1.3538   32.1219   22.6007 C.3   236  UNL236      0.0330
   1413 H           0.5745   32.8530   22.8293 H     236  UNL236      0.0521
   1414 H           1.3488   31.3229   23.3461 H     236  UNL236      0.0521
   1415 H           1.1714   31.6954   21.6115 H     236  UNL236      0.0521
   1416 H           2.7509   33.1294   23.4906 H     236  UNL236      0.2090
   1417 O           4.4021   32.5163   26.4777 O.3   237  UNL237     -0.3982
   1418 C           4.2790   31.2040   26.9945 C.3   237  UNL237      0.0330
   1419 H           3.2905   31.0795   27.4437 H     237  UNL237      0.0521
   1420 H           5.0557   31.0322   27.7437 H     237  UNL237      0.0521
   1421 H           4.3986   30.4879   26.1781 H     237  UNL237      0.0521
   1422 H           4.2916   33.1291   27.2246 H     237  UNL237      0.2090
   1423 O           1.6274   32.5909   29.0784 O.3   238  UNL238     -0.3982
   1424 C           1.2566   32.5892   30.4448 C.3   238  UNL238      0.0330
   1425 H           1.1469   31.5590   30.7923 H     238  UNL238      0.0521
   1426 H           0.3146   33.1290   30.5682 H     238  UNL238      0.0521
   1427 H           2.0374   33.0861   31.0253 H     238  UNL238      0.0521
   1428 H           0.9160   32.1438   28.5888 H     238  UNL238      0.2090
   1429 O           2.3244   32.4431   34.6115 O.3   239  UNL239     -0.3982
   1430 C           0.9561   32.2888   34.2822 C.3   239  UNL239      0.0330
   1431 H           0.5804   31.3560   34.7098 H     239  UNL239      0.0521
   1432 H           0.8412   32.2763   33.1956 H     239  UNL239      0.0521
   1433 H           0.3940   33.1293   34.6961 H     239  UNL239      0.0521
   1434 H           2.7972   31.6833   34.2312 H     239  UNL239      0.2090
   1435 O           3.1884   33.1295   37.7350 O.3   240  UNL240     -0.3982
   1436 C           4.0357   32.0258   37.4737 C.3   240  UNL240      0.0330
   1437 H           4.4690   32.1262   36.4755 H     240  UNL240      0.0521
   1438 H           3.4600   31.0995   37.5412 H     240  UNL240      0.0521
   1439 H           4.8368   32.0092   38.2163 H     240  UNL240      0.0521
   1440 H           2.4879   33.1180   37.0607 H     240  UNL240      0.2090
   1441 O           7.8332   -1.0995   -1.4030 O.3   241  UNL241     -0.3982
   1442 C           7.9186   -1.0995    0.0102 C.3   241  UNL241      0.0330
   1443 H           8.6247   -1.8685    0.3335 H     241  UNL241      0.0521
   1444 H           6.9312   -1.2942    0.4358 H     241  UNL241      0.0521
   1445 H           8.2707   -0.1209    0.3449 H     241  UNL241      0.0521
   1446 H           7.5185   -1.9799   -1.6702 H     241  UNL241      0.2090
   1447 O           5.5249   -1.5017    3.8559 O.3   242  UNL242     -0.3982
   1448 C           5.5709   -0.1941    3.3150 C.3   242  UNL242      0.0330
   1449 H           5.5306   -0.2484    2.2242 H     242  UNL242      0.0521
   1450 H           6.4924    0.3001    3.6321 H     242  UNL242      0.0521
   1451 H           4.7115    0.3724    3.6813 H     242  UNL242      0.0521
   1452 H           6.2991   -1.9800    3.5133 H     242  UNL242      0.2090
   1453 O           4.9173    0.4828    6.2879 O.3   243  UNL243     -0.3982
   1454 C           6.2240    0.0240    6.5822 C.3   243  UNL243      0.0330
   1455 H           6.6371    0.6048    7.4107 H     243  UNL243      0.0521
   1456 H           6.8564    0.1305    5.6975 H     243  UNL243      0.0521
   1457 H           6.1748   -1.0295    6.8675 H     243  UNL243      0.0521
   1458 H           4.9929    1.4196    6.0382 H     243  UNL243      0.2090
   1459 O           5.9538   -1.0230    9.2922 O.3   244  UNL244     -0.3982
   1460 C           5.8325   -1.1855   10.6934 C.3   244  UNL244      0.0330
   1461 H           6.5042   -1.9797   11.0285 H     244  UNL244      0.0521
   1462 H           4.7992   -1.4377   10.9437 H     244  UNL244      0.0521
   1463 H           6.1058   -0.2487   11.1846 H     244  UNL244      0.0521
   1464 H           5.7050   -1.8697    8.8838 H     244  UNL244      0.2090
   1465 O           5.6899    0.4416   13.3922 O.3   245  UNL245     -0.3982
   1466 C           4.3702   -0.0336   13.5844 C.3   245  UNL245      0.0330
   1467 H           3.7655    0.7469   14.0529 H     245  UNL245      0.0521
   1468 H           4.3912   -0.9232   14.2186 H     245  UNL245      0.0521
   1469 H           3.9404   -0.2911   12.6136 H     245  UNL245      0.0521
   1470 H           6.0450    0.6618   14.2702 H     245  UNL245      0.2090
   1471 O           6.4756   -1.0705   15.8808 O.3   246  UNL246     -0.3982
   1472 C           5.3924   -1.1272   16.7908 C.3   246  UNL246      0.0330
   1473 H           5.5229   -1.9802   17.4614 H     246  UNL246      0.0521
   1474 H           4.4553   -1.2251   16.2374 H     246  UNL246      0.0521
   1475 H           5.3723   -0.2054   17.3770 H     246  UNL246      0.0521
   1476 H           6.4677   -1.9011   15.3753 H     246  UNL246      0.2090
   1477 O           6.6453   -1.3552   20.1586 O.3   247  UNL247     -0.3982
   1478 C           6.4905    0.0291   19.9053 C.3   247  UNL247      0.0330
   1479 H           5.4871    0.2193   19.5162 H     247  UNL247      0.0521
   1480 H           7.2414    0.3541   19.1811 H     247  UNL247      0.0521
   1481 H           6.6268    0.5787   20.8397 H     247  UNL247      0.0521
   1482 H           6.5190   -1.8164   19.3120 H     247  UNL247      0.2090
   1483 O           5.6199   -0.1402   23.4415 O.3   248  UNL248     -0.3982
   1484 C           5.4962   -1.5499   23.3987 C.3   248  UNL248      0.0330
   1485 H           5.9289   -1.9265   22.4685 H     248  UNL248      0.0521
   1486 H           4.4407   -1.8260   23.4600 H     248  UNL248      0.0521
   1487 H           6.0328   -1.9796   24.2478 H     248  UNL248      0.0521
   1488 H           5.1342    0.2126   22.6766 H     248  UNL248      0.2090
   1489 O           6.4334   -1.3657   26.6625 O.3   249  UNL249     -0.3982
   1490 C           5.0294   -1.2093   26.7575 C.3   249  UNL249      0.0330
   1491 H           4.5631   -1.5177   25.8185 H     249  UNL249      0.0521
   1492 H           4.7919   -0.1638   26.9686 H     249  UNL249      0.0521
   1493 H           4.6563   -1.8367   27.5704 H     249  UNL249      0.0521
   1494 H           6.7354   -0.7975   25.9335 H     249  UNL249      0.2090
   1495 O           5.9568   -0.1548   29.9143 O.3   250  UNL250     -0.3982
   1496 C           5.9992   -1.5673   30.0012 C.3   250  UNL250      0.0330
   1497 H           6.3684   -1.9803   29.0592 H     250  UNL250      0.0521
   1498 H           4.9979   -1.9505   30.2118 H     250  UNL250      0.0521
   1499 H           6.6742   -1.8533   30.8113 H     250  UNL250      0.0521
   1500 H           5.3505    0.0686   29.1876 H     250  UNL250      0.2090
   1501 O           5.3287   -0.2848   34.3610 O.3   251  UNL251     -0.3982
   1502 C           5.9135   -0.5965   33.1098 C.3   251  UNL251      0.0330
   1503 H           6.6097   -1.4303   33.2296 H     251  UNL251      0.0521
   1504 H           6.4405    0.2798   32.7246 H     251  UNL251      0.0521
   1505 H           5.1244   -0.8813   32.4099 H     251  UNL251      0.0521
   1506 H           6.0526   -0.0360   34.9606 H     251  UNL251      0.2090
   1507 O           6.2309   -1.0937   37.8577 O.3   252  UNL252     -0.3982
   1508 C           4.8535   -1.1869   37.5434 C.3   252  UNL252      0.0330
   1509 H           4.3728   -1.9012   38.2164 H     252  UNL252      0.0521
   1510 H           4.7367   -1.5113   36.5066 H     252  UNL252      0.0521
   1511 H           4.3931   -0.2042   37.6695 H     252  UNL252      0.0521
   1512 H           6.6121   -1.9800   37.7367 H     252  UNL252      0.2090
   1513 O           8.3563    1.9996   -1.2510 O.3   253  UNL253     -0.3982
   1514 C           6.9501    1.8354   -1.2510 C.3   253  UNL253      0.0330
   1515 H           6.6530    1.2301   -2.1110 H     253  UNL253      0.0521
   1516 H           6.4680    2.8149   -1.2974 H     253  UNL253      0.0521
   1517 H           6.6516    1.3281   -0.3306 H     253  UNL253      0.0521
   1518 H           8.5911    2.4521   -2.0790 H     253  UNL253      0.2090
   1519 O           5.9703    2.6619    2.5332 O.3   254  UNL254     -0.3982
   1520 C           7.3100    2.3508    2.1974 C.3   254  UNL254      0.0330
   1521 H           7.6454    3.0050    1.3888 H     254  UNL254      0.0521
   1522 H           7.3750    1.3055    1.8855 H     254  UNL254      0.0521
   1523 H           7.9417    2.5067    3.0751 H     254  UNL254      0.0521
   1524 H           5.4341    2.5141    1.7355 H     254  UNL254      0.2090
   1525 O           6.3903    3.6280    5.4048 O.3   255  UNL255     -0.3982
   1526 C           6.4856    3.7265    6.8139 C.3   255  UNL255      0.0330
   1527 H           6.4022    2.7306    7.2562 H     255  UNL255      0.0521
   1528 H           5.6878    4.3717    7.1897 H     255  UNL255      0.0521
   1529 H           7.4543    4.1589    7.0752 H     255  UNL255      0.0521
   1530 H           5.5211    3.2414    5.2035 H     255  UNL255      0.2090
   1531 O           7.1177    2.4968   10.3238 O.3   256  UNL256     -0.3982
   1532 C           7.4434    3.8728   10.2517 C.3   256  UNL256      0.0330
   1533 H           6.5595    4.4703   10.4884 H     256  UNL256      0.0521
   1534 H           7.7993    4.1116    9.2465 H     256  UNL256      0.0521
   1535 H           8.2319    4.0897   10.9761 H     256  UNL256      0.0521
   1536 H           6.4162    2.3346    9.6703 H     256  UNL256      0.2090
   1537 O           6.6439    3.4277   13.1053 O.3   257  UNL257     -0.3982
   1538 C           5.2376    3.4277   12.9411 C.3   257  UNL257      0.0330
   1539 H           4.7689    2.9520   13.8061 H     257  UNL257      0.0521
   1540 H           4.9765    2.8867   12.0283 H     257  UNL257      0.0521
   1541 H           4.8891    4.4601   12.8624 H     257  UNL257      0.0521
   1542 H           6.9237    2.4989   13.1721 H     257  UNL257      0.2090
   1543 O           7.7506    2.7685   16.8098 O.3   258  UNL258     -0.3982
   1544 C           7.1796    4.0385   16.5534 C.3   258  UNL258      0.0330
   1545 H           7.9733    4.7842   16.4624 H     258  UNL258      0.0521
   1546 H           6.5046    4.3069   17.3697 H     258  UNL258      0.0521
   1547 H           6.6167    3.9927   15.6182 H     258  UNL258      0.0521
   1548 H           8.2433    2.8401   17.6451 H     258  UNL258      0.2090
   1549 O           6.4639    3.0167   19.6298 O.3   259  UNL259     -0.3982
   1550 C           5.1526    3.1582   20.1444 C.3   259  UNL259      0.0330
   1551 H           4.7675    2.1784   20.4375 H     259  UNL259      0.0521
   1552 H           4.5073    3.6023   19.3827 H     259  UNL259      0.0521
   1553 H           5.1829    3.8119   21.0193 H     259  UNL259      0.0521
   1554 H           6.4052    2.4320   18.8550 H     259  UNL259      0.2090
   1555 O           7.8519    3.7526   22.9077 O.3   260  UNL260     -0.3982
   1556 C           6.7537    2.8803   23.1011 C.3   260  UNL260      0.0330
   1557 H           5.8245    3.4555   23.0934 H     260  UNL260      0.0521
   1558 H           6.8645    2.3597   24.0555 H     260  UNL260      0.0521
   1559 H           6.7336    2.1489   22.2898 H     260  UNL260      0.0521
   1560 H           7.8436    4.3897   23.6423 H     260  UNL260      0.2090
   1561 O           6.2176    2.0719   26.8155 O.3   261  UNL261     -0.3982
   1562 C           5.2443    2.9942   26.3609 C.3   261  UNL261      0.0330
   1563 H           4.2628    2.5138   26.3501 H     261  UNL261      0.0521
   1564 H           5.5058    3.3355   25.3563 H     261  UNL261      0.0521
   1565 H           5.2213    3.8499   27.0396 H     261  UNL261      0.0521
   1566 H           6.2150    1.3242   26.1939 H     261  UNL261      0.2090
   1567 O           8.0872    3.8038   30.0589 O.3   262  UNL262     -0.3982
   1568 C           6.7012    3.5494   29.9221 C.3   262  UNL262      0.0330
   1569 H           6.4258    3.5852   28.8651 H     262  UNL262      0.0521
   1570 H           6.1355    4.2976   30.4826 H     262  UNL262      0.0521
   1571 H           6.4813    2.5560   30.3202 H     262  UNL262      0.0521
   1572 H           8.2518    4.6914   29.6974 H     262  UNL262      0.2090
   1573 O           6.4754    3.2252   32.9203 O.3   263  UNL263     -0.3982
   1574 C           5.5455    2.7606   33.8816 C.3   263  UNL263      0.0330
   1575 H           6.0606    2.1368   34.6164 H     263  UNL263      0.0521
   1576 H           4.7625    2.1839   33.3833 H     263  UNL263      0.0521
   1577 H           5.0972    3.6195   34.3864 H     263  UNL263      0.0521
   1578 H           6.8564    2.4414   32.4892 H     263  UNL263      0.2090
   1579 O           5.9495    3.3093   37.0302 O.3   264  UNL264     -0.3982
   1580 C           5.9299    1.9448   37.4075 C.3   264  UNL264      0.0330
   1581 H           6.9229    1.6472   37.7536 H     264  UNL264      0.0521
   1582 H           5.6323    1.3336   36.5520 H     264  UNL264      0.0521
   1583 H           5.2087    1.8104   38.2170 H     264  UNL264      0.0521
   1584 H           6.5978    3.3975   36.3109 H     264  UNL264      0.2090
   1585 O           6.1694    4.9847    0.1335 O.3   265  UNL265     -0.3982
   1586 C           7.5164    5.1906   -0.2507 C.3   265  UNL265      0.0330
   1587 H           7.7673    4.5202   -1.0764 H     265  UNL265      0.0521
   1588 H           8.1727    4.9978    0.6015 H     265  UNL265      0.0521
   1589 H           7.6390    6.2265   -0.5751 H     265  UNL265      0.0521
   1590 H           6.0914    4.0576    0.4162 H     265  UNL265      0.2090
   1591 O           7.5273    6.9757    2.4606 O.3   266  UNL266     -0.3982
   1592 C           7.2088    5.7936    3.1716 C.3   266  UNL266      0.0330
   1593 H           7.3810    4.9247    2.5315 H     266  UNL266      0.0521
   1594 H           6.1627    5.8268    3.4855 H     266  UNL266      0.0521
   1595 H           7.8497    5.7261    4.0539 H     266  UNL266      0.0521
   1596 H           6.9431    7.0081    1.6839 H     266  UNL266      0.2090
   1597 O           5.6888    7.6521    7.0752 O.3   267  UNL267     -0.3982
   1598 C           6.6349    6.9214    6.3166 C.3   267  UNL267      0.0330
   1599 H           6.1132    6.2328    5.6473 H     267  UNL267      0.0521
   1600 H           7.2914    6.3648    6.9899 H     267  UNL267      0.0521
   1601 H           7.2313    7.6197    5.7247 H     267  UNL267      0.0521
   1602 H           5.1750    7.0063    7.5895 H     267  UNL267      0.2090
   1603 O           7.4341    7.2637   10.4007 O.3   268  UNL268     -0.3982
   1604 C           6.0279    7.2076   10.2464 C.3   268  UNL268      0.0330
   1605 H           5.7028    8.0012    9.5690 H     268  UNL268      0.0521
   1606 H           5.5485    7.3268   11.2211 H     268  UNL268      0.0521
   1607 H           5.7551    6.2373    9.8249 H     268  UNL268      0.0521
   1608 H           7.6458    8.1353   10.7762 H     268  UNL268      0.2090
   1609 O           8.4451    6.8836   13.4068 O.3   269  UNL269     -0.3982
   1610 C           7.1135    6.4086   13.4819 C.3   269  UNL269      0.0330
   1611 H           7.0120    5.7400   14.3405 H     269  UNL269      0.0521
   1612 H           6.8630    5.8767   12.5609 H     269  UNL269      0.0521
   1613 H           6.4391    7.2594   13.6037 H     269  UNL269      0.0521
   1614 H           9.0199    6.1067   13.2990 H     269  UNL269      0.2090
   1615 O           7.6062    7.2268   16.4145 O.3   270  UNL270     -0.3982
   1616 C           6.2090    7.3850   16.5793 C.3   270  UNL270      0.0330
   1617 H           6.0140    8.0580   17.4180 H     270  UNL270      0.0521
   1618 H           5.7506    6.4108   16.7658 H     270  UNL270      0.0521
   1619 H           5.7897    7.8136   15.6660 H     270  UNL270      0.0521
   1620 H           7.9499    6.8450   17.2401 H     270  UNL270      0.2090
   1621 O           6.9491    5.8069   19.7184 O.3   271  UNL271     -0.3982
   1622 C           5.5896    6.1692   19.5605 C.3   271  UNL271      0.0330
   1623 H           5.5196    7.2371   19.3391 H     271  UNL271      0.0521
   1624 H           5.0416    5.9396   20.4775 H     271  UNL271      0.0521
   1625 H           5.1639    5.5988   18.7317 H     271  UNL271      0.0521
   1626 H           7.2996    6.3287   20.4603 H     271  UNL271      0.2090
   1627 O           7.1340    7.1413   23.5727 O.3   272  UNL272     -0.3982
   1628 C           6.0210    6.5690   22.9108 C.3   272  UNL272      0.0330
   1629 H           5.5320    7.3281   22.2952 H     272  UNL272      0.0521
   1630 H           5.3187    6.1762   23.6501 H     272  UNL272      0.0521
   1631 H           6.3683    5.7534   22.2721 H     272  UNL272      0.0521
   1632 H           6.7949    7.8613   24.1314 H     272  UNL272      0.2090
   1633 O           8.0827    6.7892   26.9021 O.3   273  UNL273     -0.3982
   1634 C           7.2470    5.7109   26.5237 C.3   273  UNL273      0.0330
   1635 H           6.3688    6.0958   25.9994 H     273  UNL273      0.0521
   1636 H           6.9394    5.1573   27.4142 H     273  UNL273      0.0521
   1637 H           7.8035    5.0464   25.8586 H     273  UNL273      0.0521
   1638 H           7.5620    7.3611   27.4914 H     273  UNL273      0.2090
   1639 O           6.4581    6.7932   29.7766 O.3   274  UNL274     -0.3982
   1640 C           5.0519    6.8311   29.9364 C.3   274  UNL274      0.0330
   1641 H           4.8055    7.2936   30.8954 H     274  UNL274      0.0521
   1642 H           4.6523    5.8148   29.8966 H     274  UNL274      0.0521
   1643 H           4.6181    7.4227   29.1269 H     274  UNL274      0.0521
   1644 H           6.8147    6.2618   30.5088 H     274  UNL274      0.2090
   1645 O           5.5495    7.4974   34.2350 O.3   275  UNL275     -0.3982
   1646 C           5.5185    6.2548   33.5572 C.3   275  UNL275      0.0330
   1647 H           5.9274    6.3772   32.5511 H     275  UNL275      0.0521
   1648 H           4.4884    5.8944   33.5021 H     275  UNL275      0.0521
   1649 H           6.1254    5.5336   34.1095 H     275  UNL275      0.0521
   1650 H           5.0027    8.1165   33.7218 H     275  UNL275      0.2090
   1651 O           5.0498    5.8351   38.2166 O.3   276  UNL276     -0.3982
   1652 C           6.1707    6.2949   37.4840 C.3   276  UNL276      0.0330
   1653 H           6.3638    7.3419   37.7308 H     276  UNL276      0.0521
   1654 H           5.9749    6.1919   36.4139 H     276  UNL276      0.0521
   1655 H           7.0419    5.6929   37.7524 H     276  UNL276      0.0521
   1656 H           4.2929    6.3877   37.9576 H     276  UNL276      0.2090
   1657 O           7.9073    8.7217   -2.1113 O.3   277  UNL277     -0.3982
   1658 C           7.3067    9.5180   -1.1064 C.3   277  UNL277      0.0330
   1659 H           7.5752    9.1274   -0.1217 H     277  UNL277      0.0521
   1660 H           6.2213    9.5062   -1.2313 H     277  UNL277      0.0521
   1661 H           7.6710   10.5436   -1.2008 H     277  UNL277      0.0521
   1662 H           7.5652    7.8181   -2.0022 H     277  UNL277      0.2090
   1663 O           7.6328   11.3819    2.6397 O.3   278  UNL278     -0.3982
   1664 C           6.2608   11.0555    2.7652 C.3   278  UNL278      0.0330
   1665 H           5.6955   11.5394    1.9649 H     278  UNL278      0.0521
   1666 H           5.8935   11.3895    3.7386 H     278  UNL278      0.0521
   1667 H           6.1448    9.9720    2.6867 H     278  UNL278      0.0521
   1668 H           7.7043   12.3488    2.7135 H     278  UNL278      0.2090
   1669 O           8.4807    9.8182    6.4120 O.3   279  UNL279     -0.3982
   1670 C           7.2625   10.3644    5.9405 C.3   279  UNL279      0.0330
   1671 H           6.6322    9.5640    5.5448 H     279  UNL279      0.0521
   1672 H           7.4701   11.0993    5.1589 H     279  UNL279      0.0521
   1673 H           6.7478   10.8540    6.7705 H     279  UNL279      0.0521
   1674 H           8.9145    9.3908    5.6539 H     279  UNL279      0.2090
   1675 O           7.5075   10.8056    9.2258 O.3   280  UNL280     -0.3982
   1676 C           6.1012   10.6414    9.2258 C.3   280  UNL280      0.0330
   1677 H           5.6238   11.5804    8.9349 H     280  UNL280      0.0521
   1678 H           5.7682   10.3447   10.2234 H     280  UNL280      0.0521
   1679 H           5.8345    9.8619    8.5083 H     280  UNL280      0.0521
   1680 H           7.7137   11.5029    9.8714 H     280  UNL280      0.2090
   1681 O           7.4789   11.0643   12.8271 O.3   281  UNL281     -0.3982
   1682 C           6.4553   10.0896   12.9092 C.3   281  UNL281      0.0330
   1683 H           5.4884   10.5846   13.0290 H     281  UNL281      0.0521
   1684 H           6.6467    9.4298   13.7589 H     281  UNL281      0.0521
   1685 H           6.4497    9.5018   11.9883 H     281  UNL281      0.0521
   1686 H           7.4595   11.5697   13.6575 H     281  UNL281      0.2090
   1687 O           7.7291   10.4662   15.8904 O.3   282  UNL282     -0.3982
   1688 C           6.3990   10.8813   16.1413 C.3   282  UNL282      0.0330
   1689 H           6.3387   11.3339   17.1342 H     282  UNL282      0.0521
   1690 H           5.7299   10.0196   16.0807 H     282  UNL282      0.0521
   1691 H           6.1091   11.6186   15.3890 H     282  UNL282      0.0521
   1692 H           7.9581    9.8128   16.5733 H     282  UNL282      0.2090
   1693 O           7.6205    8.9652   19.8736 O.3   283  UNL283     -0.3982
   1694 C           7.3635   10.3073   19.5030 C.3   283  UNL283      0.0330
   1695 H           6.2844   10.4707   19.4473 H     283  UNL283      0.0521
   1696 H           7.8244   10.5132   18.5339 H     283  UNL283      0.0521
   1697 H           7.7921   10.9723   20.2565 H     283  UNL283      0.0521
   1698 H           7.2287    8.3992   19.1868 H     283  UNL283      0.2090
   1699 O           6.8336   10.2546   22.5043 O.3   284  UNL284     -0.3982
   1700 C           5.4273   10.2546   22.3401 C.3   284  UNL284      0.0330
   1701 H           5.1151   11.1875   21.8642 H     284  UNL284      0.0521
   1702 H           4.9458   10.1517   23.3156 H     284  UNL284      0.0521
   1703 H           5.1437    9.4117   21.7055 H     284  UNL284      0.0521
   1704 H           7.0550   11.0129   23.0713 H     284  UNL284      0.2090
   1705 O           6.1222   10.4511   25.6029 O.3   285  UNL285     -0.3982
   1706 C           6.7219    9.9710   26.7922 C.3   285  UNL285      0.0330
   1707 H           7.0547   10.8159   27.4003 H     285  UNL285      0.0521
   1708 H           7.5719    9.3323   26.5405 H     285  UNL285      0.0521
   1709 H           5.9853    9.3898   27.3519 H     285  UNL285      0.0521
   1710 H           6.7992   10.9625   25.1278 H     285  UNL285      0.2090
   1711 O           6.8140   10.0377   29.8944 O.3   286  UNL286     -0.3982
   1712 C           5.4362   10.3628   29.9132 C.3   286  UNL286      0.0330
   1713 H           5.0892   10.4235   30.9477 H     286  UNL286      0.0521
   1714 H           4.8730    9.5978   29.3731 H     286  UNL286      0.0521
   1715 H           5.2926   11.3299   29.4257 H     286  UNL286      0.0521
   1716 H           6.9101    9.1754   30.3334 H     286  UNL286      0.2090
   1717 O           6.7686   10.1715   34.3009 O.3   287  UNL287     -0.3982
   1718 C           7.2867    9.9130   33.0089 C.3   287  UNL287      0.0330
   1719 H           6.9647    8.9226   32.6776 H     287  UNL287      0.0521
   1720 H           8.3779    9.9629   33.0363 H     287  UNL287      0.0521
   1721 H           6.9070   10.6678   32.3162 H     287  UNL287      0.0521
   1722 H           7.1227    9.4863   34.8930 H     287  UNL287      0.2090
   1723 O           6.9002    9.8436   37.3053 O.3   288  UNL288     -0.3982
   1724 C           5.4939   10.0078   37.3051 C.3   288  UNL288      0.0330
   1725 H           5.1935   10.5836   36.4261 H     288  UNL288      0.0521
   1726 H           5.1867   10.5267   38.2163 H     288  UNL288      0.0521
   1727 H           5.0213    9.0234   37.2720 H     288  UNL288      0.0521
   1728 H           7.2917   10.7332   37.3351 H     288  UNL288      0.2090
   1729 O           5.8739   12.7952   -0.4134 O.3   289  UNL289     -0.3982
   1730 C           7.2825   12.9300   -0.3676 C.3   289  UNL289      0.0330
   1731 H           7.6950   12.2141    0.3477 H     289  UNL289      0.0521
   1732 H           7.5424   13.9490   -0.0705 H     289  UNL289      0.0521
   1733 H           7.6914   12.7269   -1.3601 H     289  UNL289      0.0521
   1734 H           5.5399   12.9813    0.4806 H     289  UNL289      0.2090
   1735 O           6.6166   14.6104    3.3628 O.3   290  UNL290     -0.3982
   1736 C           5.2949   14.1131    3.4644 C.3   290  UNL290      0.0330
   1737 H           4.6034   14.9438    3.6256 H     290  UNL290      0.0521
   1738 H           5.2333   13.4071    4.2961 H     290  UNL290      0.0521
   1739 H           5.0355   13.6011    2.5348 H     290  UNL290      0.0521
   1740 H           6.8183   15.0591    4.2015 H     290  UNL290      0.2090
   1741 O           7.0864   14.8122    6.6841 O.3   291  UNL291     -0.3982
   1742 C           6.3714   13.5954    6.7963 C.3   291  UNL291      0.0330
   1743 H           6.6592   13.0864    7.7196 H     291  UNL291      0.0521
   1744 H           6.5919   12.9613    5.9342 H     291  UNL291      0.0521
   1745 H           5.3011   13.8133    6.8214 H     291  UNL291      0.0521
   1746 H           8.0322   14.5870    6.6642 H     291  UNL291      0.2090
   1747 O           5.1841   13.8443    9.6274 O.3   292  UNL292     -0.3982
   1748 C           6.3443   14.0493   10.4125 C.3   292  UNL292      0.0330
   1749 H           6.1440   14.8132   11.1679 H     292  UNL292      0.0521
   1750 H           7.1694   14.3650    9.7694 H     292  UNL292      0.0521
   1751 H           6.6089   13.1116   10.9069 H     292  UNL292      0.0521
   1752 H           4.9739   14.6928    9.2014 H     292  UNL292      0.2090
   1753 O           6.9099   14.1868   13.5926 O.3   293  UNL293     -0.3982
   1754 C           5.5956   13.6742   13.4730 C.3   293  UNL293      0.0330
   1755 H           4.9709   14.3923   12.9359 H     293  UNL293      0.0521
   1756 H           5.1837   13.4895   14.4681 H     293  UNL293      0.0521
   1757 H           5.6297   12.7354   12.9152 H     293  UNL293      0.0521
   1758 H           6.8477   15.0191   14.0916 H     293  UNL293      0.2090
   1759 O           6.7117   13.8935   16.5562 O.3   294  UNL294     -0.3982
   1760 C           8.0939   13.9825   16.8498 C.3   294  UNL294      0.0330
   1761 H           8.2717   14.8295   17.5172 H     294  UNL294      0.0521
   1762 H           8.6567   14.1115   15.9221 H     294  UNL294      0.0521
   1763 H           8.4127   13.0606   17.3417 H     294  UNL294      0.0521
   1764 H           6.4580   14.7251   16.1206 H     294  UNL294      0.2090
   1765 O           6.4798   14.5307   20.1795 O.3   295  UNL295     -0.3982
   1766 C           6.2008   13.2632   19.6136 C.3   295  UNL295      0.0330
   1767 H           5.3805   13.3555   18.8974 H     295  UNL295      0.0521
   1768 H           5.9297   12.5613   20.4059 H     295  UNL295      0.0521
   1769 H           7.0929   12.9003   19.0979 H     295  UNL295      0.0521
   1770 H           5.6705   14.8269   20.6299 H     295  UNL295      0.2090
   1771 O           7.5984   14.6080   22.9647 O.3   296  UNL296     -0.3982
   1772 C           6.4793   13.8072   23.2974 C.3   296  UNL296      0.0330
   1773 H           6.8147   12.9143   23.8309 H     296  UNL296      0.0521
   1774 H           5.9500   13.5221   22.3849 H     296  UNL296      0.0521
   1775 H           5.8090   14.3827   23.9401 H     296  UNL296      0.0521
   1776 H           8.1746   14.0710   22.3945 H     296  UNL296      0.2090
   1777 O           7.2339   14.4128   26.8673 O.3   297  UNL297     -0.3982
   1778 C           5.9400   13.9389   26.5423 C.3   297  UNL297      0.0330
   1779 H           5.4258   13.6257   27.4544 H     297  UNL297      0.0521
   1780 H           6.0225   13.0971   25.8505 H     297  UNL297      0.0521
   1781 H           5.3756   14.7444   26.0667 H     297  UNL297      0.0521
   1782 H           7.7106   13.6767   27.2873 H     297  UNL297      0.2090
   1783 O           8.1730   12.9700   30.6501 O.3   298  UNL298     -0.3982
   1784 C           7.0986   13.3309   29.8016 C.3   298  UNL298      0.0330
   1785 H           6.1743   13.3785   30.3827 H     298  UNL298      0.0521
   1786 H           7.0011   12.5929   29.0017 H     298  UNL298      0.0521
   1787 H           7.3036   14.3118   29.3664 H     298  UNL298      0.0521
   1788 H           7.9628   12.0962   31.0213 H     298  UNL298      0.2090
   1789 O           6.0028   14.2106   34.3628 O.3   299  UNL299     -0.3982
   1790 C           6.3028   14.3791   32.9895 C.3   299  UNL299      0.0330
   1791 H           6.4921   13.4036   32.5345 H     299  UNL299      0.0521
   1792 H           7.1819   15.0192   32.8835 H     299  UNL299      0.0521
   1793 H           5.4501   14.8501   32.4948 H     299  UNL299      0.0521
   1794 H           6.7772   13.7909   34.7750 H     299  UNL299      0.2090
   1795 O           6.8024   13.6463   37.7793 O.3   300  UNL300     -0.3982
   1796 C           5.3964   13.6276   37.6140 C.3   300  UNL300      0.0330
   1797 H           5.0024   12.6637   37.9459 H     300  UNL300      0.0521
   1798 H           5.1502   13.7912   36.5621 H     300  UNL300      0.0521
   1799 H           4.9571   14.4255   38.2172 H     300  UNL300      0.0521
   1800 H           7.1640   12.9280   37.2327 H     300  UNL300      0.2090
   1801 O           6.2642   15.7873   -1.0825 O.3   301  UNL301     -0.3982
   1802 C           6.5590   17.1402   -1.3777 C.3   301  UNL301      0.0330
   1803 H           5.6661   17.6307   -1.7732 H     301  UNL301      0.0521
   1804 H           7.3679   17.1861   -2.1109 H     301  UNL301      0.0521
   1805 H           6.8727   17.6438   -0.4604 H     301  UNL301      0.0521
   1806 H           5.9891   15.3666   -1.9149 H     301  UNL301      0.2090
   1807 O           7.3052   17.3954    2.2389 O.3   302  UNL302     -0.3982
   1808 C           5.8949   17.5183    2.2209 C.3   302  UNL302      0.0330
   1809 H           5.5705   18.1285    3.0676 H     302  UNL302      0.0521
   1810 H           5.4410   16.5260    2.2781 H     302  UNL302      0.0521
   1811 H           5.5922   18.0018    1.2891 H     302  UNL302      0.0521
   1812 H           7.5436   16.9633    3.0768 H     302  UNL302      0.2090
   1813 O           5.3830   18.3691    6.0400 O.3   303  UNL303     -0.3982
   1814 C           6.6924   17.9019    6.3079 C.3   303  UNL303      0.0330
   1815 H           6.9725   17.1529    5.5631 H     303  UNL303      0.0521
   1816 H           6.7269   17.4661    7.3093 H     303  UNL303      0.0521
   1817 H           7.3875   18.7430    6.2549 H     303  UNL303      0.0521
   1818 H           4.7890   17.6011    6.0942 H     303  UNL303      0.2090
   1819 O           8.0364   17.9510    9.5677 O.3   304  UNL304     -0.3982
   1820 C           6.8844   17.3946   10.1742 C.3   304  UNL304      0.0330
   1821 H           7.1798   16.5819   10.8424 H     304  UNL304      0.0521
   1822 H           6.2103   17.0182    9.4010 H     304  UNL304      0.0521
   1823 H           6.3764   18.1711   10.7509 H     304  UNL304      0.0521
   1824 H           8.4658   17.2391    9.0634 H     304  UNL304      0.2090
   1825 O           6.2802   17.6462   13.3969 O.3   305  UNL305     -0.3982
   1826 C           4.8644   17.6462   13.3969 C.3   305  UNL305      0.0330
   1827 H           4.4991   16.7401   13.8865 H     305  UNL305      0.0521
   1828 H           4.4992   17.6897   12.3680 H     305  UNL305      0.0521
   1829 H           4.5091   18.5222   13.9447 H     305  UNL305      0.0521
   1830 H           6.5659   16.8582   12.9041 H     305  UNL305      0.2090
   1831 O           7.5078   17.5287   16.7370 O.3   306  UNL306     -0.3982
   1832 C           6.1110   17.3506   16.8848 C.3   306  UNL306      0.0330
   1833 H           5.9187   16.4841   17.5224 H     306  UNL306      0.0521
   1834 H           5.6559   17.2019   15.9026 H     306  UNL306      0.0521
   1835 H           5.6862   18.2435   17.3494 H     306  UNL306      0.0521
   1836 H           7.8565   16.7212   16.3226 H     306  UNL306      0.2090
   1837 O           6.5973   17.5924   20.1619 O.3   307  UNL307     -0.3982
   1838 C           5.1910   17.5736   19.9988 C.3   307  UNL307      0.0330
   1839 H           4.7088   17.6775   20.9739 H     307  UNL307      0.0521
   1840 H           4.8903   16.6335   19.5300 H     307  UNL307      0.0521
   1841 H           4.8965   18.4082   19.3582 H     307  UNL307      0.0521
   1842 H           6.8286   16.8410   20.7342 H     307  UNL307      0.2090
   1843 O           8.6462   17.4308   23.7576 O.3   308  UNL308     -0.3982
   1844 C           7.3523   17.7966   23.3143 C.3   308  UNL308      0.0330
   1845 H           6.7739   16.8962   23.0927 H     308  UNL308      0.0521
   1846 H           7.4350   18.4188   22.4199 H     308  UNL308      0.0521
   1847 H           6.8529   18.3625   24.1043 H     308  UNL308      0.0521
   1848 H           9.0644   16.9305   23.0363 H     308  UNL308      0.2090
   1849 O           6.6114   17.9938   26.4597 O.3   309  UNL309     -0.3982
   1850 C           5.2801   17.5120   26.4607 C.3   309  UNL309      0.0330
   1851 H           5.2233   16.5966   27.0550 H     309  UNL309      0.0521
   1852 H           4.9630   17.3130   25.4342 H     309  UNL309      0.0521
   1853 H           4.6282   18.2704   26.9006 H     309  UNL309      0.0521
   1854 H           7.1660   17.2999   26.0640 H     309  UNL309      0.2090
   1855 O           7.2374   16.8555   29.9889 O.3   310  UNL310     -0.3982
   1856 C           5.8766   16.6859   29.6366 C.3   310  UNL310      0.0330
   1857 H           5.5367   17.5525   29.0642 H     310  UNL310      0.0521
   1858 H           5.2758   16.5758   30.5427 H     310  UNL310      0.0521
   1859 H           5.7775   15.7862   29.0248 H     310  UNL310      0.0521
   1860 H           7.2939   17.6609   30.5309 H     310  UNL310      0.2090
   1861 O           5.5136   17.6768   32.8131 O.3   311  UNL311     -0.3982
   1862 C           5.8728   17.7635   34.1798 C.3   311  UNL311      0.0330
   1863 H           6.7788   18.3660   34.2819 H     311  UNL311      0.0521
   1864 H           6.0432   16.7598   34.5770 H     311  UNL311      0.0521
   1865 H           5.0581   18.2379   34.7319 H     311  UNL311      0.0521
   1866 H           6.2551   17.2520   32.3492 H     311  UNL311      0.2090
   1867 O           7.2131   17.3691   37.5318 O.3   312  UNL312     -0.3982
   1868 C           5.8074   17.2000   37.5318 C.3   312  UNL312      0.0330
   1869 H           5.5366   16.3929   38.2170 H     312  UNL312      0.0521
   1870 H           5.4681   16.9631   36.5205 H     312  UNL312      0.0521
   1871 H           5.3378   18.1291   37.8630 H     312  UNL312      0.0521
   1872 H           7.6019   16.5292   37.2338 H     312  UNL312      0.2090
   1873 O           7.8559   21.4311    0.5326 O.3   313  UNL313     -0.3982
   1874 C           7.3351   20.1282    0.7218 C.3   313  UNL313      0.0330
   1875 H           6.3162   20.0816    0.3295 H     313  UNL313      0.0521
   1876 H           7.3384   19.8847    1.7870 H     313  UNL313      0.0521
   1877 H           7.9630   19.4132    0.1849 H     313  UNL313      0.0521
   1878 H           7.2786   22.0431    1.0201 H     313  UNL313      0.2090
   1879 O           6.8399   21.1626    3.9177 O.3   314  UNL314     -0.3982
   1880 C           5.4791   20.8613    3.6688 C.3   314  UNL314      0.0330
   1881 H           5.1023   20.1991    4.4523 H     314  UNL314      0.0521
   1882 H           5.3844   20.3791    2.6928 H     314  UNL314      0.0521
   1883 H           4.9033   21.7898    3.6714 H     314  UNL314      0.0521
   1884 H           7.3252   20.3200    3.9094 H     314  UNL314      0.2090
   1885 O           6.6058   21.1000    6.9478 O.3   315  UNL315     -0.3982
   1886 C           5.3778   21.7623    6.7074 C.3   315  UNL315      0.0330
   1887 H           5.4768   22.4089    5.8320 H     315  UNL315      0.0521
   1888 H           5.1055   22.3561    7.5834 H     315  UNL315      0.0521
   1889 H           4.6022   21.0159    6.5205 H     315  UNL315      0.0521
   1890 H           7.2741   21.7874    7.1102 H     315  UNL315      0.2090
   1891 O           7.6051   20.7436    9.8661 O.3   316  UNL316     -0.3982
   1892 C           6.1988   20.5805    9.8471 C.3   316  UNL316      0.0330
   1893 H           5.7278   21.5094    9.5161 H     316  UNL316      0.0521
   1894 H           5.8480   20.3181   10.8481 H     316  UNL316      0.0521
   1895 H           5.9437   19.7773    9.1518 H     316  UNL316      0.0521
   1896 H           7.8009   21.4622   10.4912 H     316  UNL316      0.2090
   1897 O           7.6823   20.4587   13.0828 O.3   317  UNL317     -0.3982
   1898 C           6.4355   21.0071   13.4690 C.3   317  UNL317      0.0330
   1899 H           5.8175   20.2271   13.9206 H     317  UNL317      0.0521
   1900 H           5.9327   21.4237   12.5929 H     317  UNL317      0.0521
   1901 H           6.6075   21.8011   14.1995 H     317  UNL317      0.0521
   1902 H           7.4977   19.7576   12.4349 H     317  UNL317      0.2090
   1903 O           5.9034   20.7661   16.4205 O.3   318  UNL318     -0.3982
   1904 C           4.4972   20.6019   16.4205 C.3   318  UNL318      0.0330
   1905 H           4.2235   19.7957   17.1057 H     318  UNL318      0.0521
   1906 H           4.1570   20.3661   15.4092 H     318  UNL318      0.0521
   1907 H           4.0308   21.5327   16.7517 H     318  UNL318      0.0521
   1908 H           6.2893   19.9247   16.1225 H     318  UNL318      0.2090
   1909 O           8.0621   21.3198   19.8488 O.3   319  UNL319     -0.3982
   1910 C           6.7133   21.0359   19.5255 C.3   319  UNL319      0.0330
   1911 H           6.0758   21.2672   20.3825 H     319  UNL319      0.0521
   1912 H           6.6158   19.9805   19.2596 H     319  UNL319      0.0521
   1913 H           6.4144   21.6528   18.6748 H     319  UNL319      0.0521
   1914 H           8.2987   20.7580   20.6063 H     319  UNL319      0.2090
   1915 O           4.9066   21.4558   22.7203 O.3   320  UNL320     -0.3982
   1916 C           6.1673   20.9812   23.1562 C.3   320  UNL320      0.0330
   1917 H           6.7044   20.5425   22.3116 H     320  UNL320      0.0521
   1918 H           6.0250   20.2329   23.9396 H     320  UNL320      0.0521
   1919 H           6.7435   21.8190   23.5559 H     320  UNL320      0.0521
   1920 H           4.4185   20.6907   22.3712 H     320  UNL320      0.2090
   1921 O           6.9241   21.2696   26.2726 O.3   321  UNL321     -0.3982
   1922 C           5.5586   21.1504   26.6272 C.3   321  UNL321      0.0330
   1923 H           5.4004   20.2096   27.1602 H     321  UNL321      0.0521
   1924 H           4.9432   21.1782   25.7247 H     321  UNL321      0.0521
   1925 H           5.2861   21.9852   27.2771 H     321  UNL321      0.0521
   1926 H           7.1365   20.5157   25.6964 H     321  UNL321      0.2090
   1927 O           6.9203   20.4790   30.5961 O.3   322  UNL322     -0.3982
   1928 C           5.7233   20.8212   29.9219 C.3   322  UNL322      0.0330
   1929 H           5.8702   21.7503   29.3655 H     322  UNL322      0.0521
   1930 H           4.9167   20.9431   30.6490 H     322  UNL322      0.0521
   1931 H           5.4656   20.0193   29.2262 H     322  UNL322      0.0521
   1932 H           7.1235   21.2088   31.2058 H     322  UNL322      0.2090
   1933 O           8.3125   21.3563   33.7847 O.3   323  UNL323     -0.3982
   1934 C           6.9549   20.9575   33.8345 C.3   323  UNL323      0.0330
   1935 H           6.7769   20.1744   33.0933 H     323  UNL323      0.0521
   1936 H           6.3136   21.8186   33.6316 H     323  UNL323      0.0521
   1937 H           6.7351   20.5691   34.8317 H     323  UNL323      0.0521
   1938 H           8.4777   21.6962   32.8888 H     323  UNL323      0.2090
   1939 O           6.4696   21.8191   38.2175 O.3   324  UNL324     -0.3982
   1940 C           5.3939   21.2954   37.4604 C.3   324  UNL324      0.0330
   1941 H           5.3463   20.2119   37.5944 H     324  UNL324      0.0521
   1942 H           5.5389   21.5367   36.4046 H     324  UNL324      0.0521
   1943 H           4.4615   21.7449   37.8098 H     324  UNL324      0.0521
   1944 H           7.2827   21.4022   37.8849 H     324  UNL324      0.2090
   1945 O           6.8502   23.1586   -1.2177 O.3   325  UNL325     -0.3982
   1946 C           7.2969   24.4938   -1.3662 C.3   325  UNL325      0.0330
   1947 H           6.4622   25.1256   -1.6798 H     325  UNL325      0.0521
   1948 H           8.0957   24.5310   -2.1108 H     325  UNL325      0.0521
   1949 H           7.6796   24.8492   -0.4066 H     325  UNL325      0.0521
   1950 H           6.5167   22.8708   -2.0846 H     325  UNL325      0.2090
   1951 O           4.3895   23.5025    1.7031 O.3   326  UNL326     -0.3982
   1952 C           5.5851   24.2015    1.9971 C.3   326  UNL326      0.0330
   1953 H           5.3872   24.9589    2.7597 H     326  UNL326      0.0521
   1954 H           5.9645   24.6747    1.0882 H     326  UNL326      0.0521
   1955 H           6.3271   23.4936    2.3737 H     326  UNL326      0.0521
   1956 H           3.7506   24.1561    1.3713 H     326  UNL326      0.2090
   1957 O           8.0568   23.8657    5.9693 O.3   327  UNL327     -0.3982
   1958 C           7.0324   24.7020    5.4636 C.3   327  UNL327      0.0330
   1959 H           6.3850   24.1252    4.7984 H     327  UNL327      0.0521
   1960 H           7.4787   25.5384    4.9202 H     327  UNL327      0.0521
   1961 H           6.4427   25.0864    6.2992 H     327  UNL327      0.0521
   1962 H           8.5627   23.5400    5.2055 H     327  UNL327      0.2090
   1963 O           6.9162   24.7754   10.3368 O.3   328  UNL328     -0.3982
   1964 C           6.4258   24.3919    9.0651 C.3   328  UNL328      0.0330
   1965 H           5.7776   23.5186    9.1717 H     328  UNL328      0.0521
   1966 H           7.2649   24.1579    8.4055 H     328  UNL328      0.0521
   1967 H           5.8519   25.2194    8.6414 H     328  UNL328      0.0521
   1968 H           7.4208   24.0218   10.6875 H     328  UNL328      0.2090
   1969 O           5.9409   24.0262   12.9874 O.3   329  UNL329     -0.3982
   1970 C           4.6120   24.2944   12.5792 C.3   329  UNL329      0.0330
   1971 H           4.6232   24.9645   11.7160 H     329  UNL329      0.0521
   1972 H           4.0624   24.7545   13.4040 H     329  UNL329      0.0521
   1973 H           4.1290   23.3545   12.3019 H     329  UNL329      0.0521
   1974 H           6.3436   24.8783   13.2272 H     329  UNL329      0.2090
   1975 O           8.1551   23.8558   15.9719 O.3   330  UNL330     -0.3982
   1976 C           7.9162   25.1593   16.4700 C.3   330  UNL330      0.0330
   1977 H           7.0923   25.1310   17.1875 H     330  UNL330      0.0521
   1978 H           7.6690   25.8273   15.6413 H     330  UNL330      0.0521
   1979 H           8.8187   25.5200   16.9690 H     330  UNL330      0.0521
   1980 H           7.3374   23.5626   15.5349 H     330  UNL330      0.2090
   1981 O           5.4006   24.8866   20.0941 O.3   331  UNL331     -0.3982
   1982 C           6.6521   24.2278   20.0271 C.3   331  UNL331      0.0330
   1983 H           6.7830   23.7925   19.0333 H     331  UNL331      0.0521
   1984 H           6.6937   23.4447   20.7880 H     331  UNL331      0.0521
   1985 H           7.4465   24.9547   20.2117 H     331  UNL331      0.0521
   1986 H           4.7159   24.2168   19.9265 H     331  UNL331      0.2090
   1987 O           6.8683   24.8688   23.2312 O.3   332  UNL332     -0.3982
   1988 C           5.4906   24.8688   23.5574 C.3   332  UNL332      0.0330
   1989 H           5.2930   24.0998   24.3083 H     332  UNL332      0.0521
   1990 H           4.9022   24.6741   22.6574 H     332  UNL332      0.0521
   1991 H           5.2211   25.8474   23.9615 H     332  UNL332      0.0521
   1992 H           7.0777   23.9884   22.8754 H     332  UNL332      0.2090
   1993 O           7.8059   24.7427   26.1185 O.3   333  UNL333     -0.3982
   1994 C           6.9217   24.3790   27.1627 C.3   333  UNL333      0.0330
   1995 H           7.4246   23.6870   27.8428 H     333  UNL333      0.0521
   1996 H           6.0310   23.9081   26.7396 H     333  UNL333      0.0521
   1997 H           6.6303   25.2780   27.7108 H     333  UNL333      0.0521
   1998 H           8.0468   23.9252   25.6503 H     333  UNL333      0.2090
   1999 O           6.3248   24.7656   30.2619 O.3   334  UNL334     -0.3982
   2000 C           4.9712   24.4777   29.9629 C.3   334  UNL334      0.0330
   2001 H           4.4691   24.1094   30.8609 H     334  UNL334      0.0521
   2002 H           4.9240   23.7256   29.1716 H     334  UNL334      0.0521
   2003 H           4.4801   25.3925   29.6228 H     334  UNL334      0.0521
   2004 H           6.7341   23.9357   30.5606 H     334  UNL334      0.2090
   2005 O           6.3472   24.4129   34.5918 O.3   335  UNL335     -0.3982
   2006 C           6.8205   24.3382   33.2595 C.3   335  UNL335      0.0330
   2007 H           6.1402   23.7243   32.6641 H     335  UNL335      0.0521
   2008 H           7.8226   23.9027   33.2518 H     335  UNL335      0.0521
   2009 H           6.8604   25.3460   32.8396 H     335  UNL335      0.0521
   2010 H           6.3227   23.5044   34.9377 H     335  UNL335      0.2090
   2011 O           6.2605   24.8963   37.5617 O.3   336  UNL336     -0.3982
   2012 C           4.8567   25.0535   37.6559 C.3   336  UNL336      0.0330
   2013 H           4.4271   24.1947   38.1778 H     336  UNL336      0.0521
   2014 H           4.4301   25.1347   36.6532 H     336  UNL336      0.0521
   2015 H           4.6381   25.9649   38.2173 H     336  UNL336      0.0521
   2016 H           6.4235   24.0801   37.0588 H     336  UNL336      0.2090
   2017 O           5.9532   28.6190    0.2013 O.3   337  UNL337     -0.3982
   2018 C           5.7852   27.2181    0.3184 C.3   337  UNL337      0.0330
   2019 H           4.7258   26.9678    0.2216 H     337  UNL337      0.0521
   2020 H           6.1620   26.8849    1.2884 H     337  UNL337      0.0521
   2021 H           6.3480   26.7250   -0.4776 H     337  UNL337      0.0521
   2022 H           5.4428   29.0290    0.9203 H     337  UNL337      0.2090
   2023 O           5.1205   29.1318    4.1701 O.3   338  UNL338     -0.3982
   2024 C           6.5136   29.2021    3.9275 C.3   338  UNL338      0.0330
   2025 H           6.7065   29.0566    2.8617 H     338  UNL338      0.0521
   2026 H           7.0250   28.4318    4.5097 H     338  UNL338      0.0521
   2027 H           6.8777   30.1866    4.2304 H     338  UNL338      0.0521
   2028 H           4.8262   28.2478    3.8918 H     338  UNL338      0.2090
   2029 O           7.1052   28.3583    7.1647 O.3   339  UNL339     -0.3982
   2030 C           5.8648   27.7722    6.8152 C.3   339  UNL339      0.0330
   2031 H           5.5506   27.0843    7.6041 H     339  UNL339      0.0521
   2032 H           5.9682   27.2355    5.8690 H     339  UNL339      0.0521
   2033 H           5.1176   28.5615    6.7041 H     339  UNL339      0.0521
   2034 H           7.7477   27.6342    7.2562 H     339  UNL339      0.2090
   2035 O           7.2975   27.6709   10.1207 O.3   340  UNL340     -0.3982
   2036 C           5.8913   27.8351   10.1207 C.3   340  UNL340      0.0330
   2037 H           5.5684   28.2192   11.0915 H     340  UNL340      0.0521
   2038 H           5.4114   26.8743    9.9191 H     340  UNL340      0.0521
   2039 H           5.6168   28.5480    9.3397 H     340  UNL340      0.0521
   2040 H           7.5108   27.0335   10.8234 H     340  UNL340      0.2090
   2041 O           5.3745   28.4504   13.5736 O.3   341  UNL341     -0.3982
   2042 C           6.7758   28.2533   13.6175 C.3   341  UNL341      0.0330
   2043 H           7.1568   28.1119   12.6030 H     341  UNL341      0.0521
   2044 H           7.0022   27.3763   14.2287 H     341  UNL341      0.0521
   2045 H           7.2449   29.1347   14.0610 H     341  UNL341      0.0521
   2046 H           4.9861   27.6527   13.1757 H     341  UNL341      0.2090
   2047 O           6.8752   28.0419   16.8026 O.3   342  UNL342     -0.3982
   2048 C           6.1700   29.2696   16.8026 C.3   342  UNL342      0.0330
   2049 H           5.3213   29.2034   17.4878 H     342  UNL342      0.0521
   2050 H           5.8193   29.4893   15.7913 H     342  UNL342      0.0521
   2051 H           6.8417   30.0651   17.1338 H     342  UNL342      0.0521
   2052 H           6.2540   27.3557   16.5046 H     342  UNL342      0.2090
   2053 O           5.5552   28.4849   20.9604 O.3   343  UNL343     -0.3982
   2054 C           6.2729   27.8857   19.8973 C.3   343  UNL343      0.0330
   2055 H           5.5704   27.4806   19.1648 H     343  UNL343      0.0521
   2056 H           6.9077   27.0874   20.2894 H     343  UNL343      0.0521
   2057 H           6.8980   28.6435   19.4190 H     343  UNL343      0.0521
   2058 H           5.0101   27.7888   21.3652 H     343  UNL343      0.2090
   2059 O           7.2250   29.1447   23.9213 O.3   344  UNL344     -0.3982
   2060 C           7.3479   27.8201   23.4366 C.3   344  UNL344      0.0330
   2061 H           7.6682   27.1624   24.2485 H     344  UNL344      0.0521
   2062 H           8.0775   27.7949   22.6236 H     344  UNL344      0.0521
   2063 H           6.3770   27.4872   23.0624 H     344  UNL344      0.0521
   2064 H           8.1015   29.4125   24.2463 H     344  UNL344      0.2090
   2065 O           6.8664   28.0648   26.6378 O.3   345  UNL345     -0.3982
   2066 C           5.4887   27.7386   26.6378 C.3   345  UNL345      0.0330
   2067 H           5.3104   26.9061   27.3230 H     345  UNL345      0.0521
   2068 H           5.1782   27.4650   25.6265 H     345  UNL345      0.0521
   2069 H           4.9175   28.6090   26.9690 H     345  UNL345      0.0521
   2070 H           7.3473   27.2739   26.3398 H     345  UNL345      0.2090
   2071 O           5.0234   27.8956   30.1722 O.3   346  UNL346     -0.3982
   2072 C           6.3180   28.3874   29.8776 C.3   346  UNL346      0.0330
   2073 H           6.9271   28.3791   30.7850 H     346  UNL346      0.0521
   2074 H           6.2419   29.4048   29.4864 H     346  UNL346      0.0521
   2075 H           6.7800   27.7437   29.1254 H     346  UNL346      0.0521
   2076 H           4.6389   28.4865   30.8418 H     346  UNL346      0.2090
   2077 O           5.4466   27.7012   34.7288 O.3   347  UNL347     -0.3982
   2078 C           5.6459   27.7483   33.3279 C.3   347  UNL347      0.0330
   2079 H           5.2147   26.8560   32.8673 H     347  UNL347      0.0521
   2080 H           6.7159   27.8016   33.1128 H     347  UNL347      0.0521
   2081 H           5.1515   28.6369   32.9284 H     347  UNL347      0.0521
   2082 H           5.8962   26.9029   35.0546 H     347  UNL347      0.2090
   2083 O           4.8313   28.3687   37.5318 O.3   348  UNL348     -0.3982
   2084 C           6.1879   28.7739   37.5318 C.3   348  UNL348      0.0330
   2085 H           6.3178   29.6153   38.2170 H     348  UNL348      0.0521
   2086 H           6.4821   29.0650   36.5205 H     348  UNL348      0.0521
   2087 H           6.8084   27.9379   37.8630 H     348  UNL348      0.0521
   2088 H           4.3056   29.1305   37.2338 H     348  UNL348      0.2090
   2089 O           5.7302   32.1509   -2.0604 O.3   349  UNL349     -0.3982
   2090 C           6.5775   32.1509   -0.9261 C.3   349  UNL349      0.0330
   2091 H           7.3450   31.3819   -1.0435 H     349  UNL349      0.0521
   2092 H           5.9858   31.9562   -0.0283 H     349  UNL349      0.0521
   2093 H           7.0554   33.1295   -0.8396 H     349  UNL349      0.0521
   2094 H           5.3204   31.2705   -2.1109 H     349  UNL349      0.2090
   2095 O           7.2286   32.2014    1.9984 O.3   350  UNL350     -0.3982
   2096 C           6.1498   32.5177    2.8590 C.3   350  UNL350      0.0330
   2097 H           6.5217   33.0784    3.7202 H     350  UNL350      0.0521
   2098 H           5.6660   31.5963    3.1920 H     350  UNL350      0.0521
   2099 H           5.4274   33.1292    2.3133 H     350  UNL350      0.0521
   2100 H           7.8526   31.6588    2.5100 H     350  UNL350      0.2090
   2101 O           8.6858   31.5166    6.3950 O.3   351  UNL351     -0.3982
   2102 C           7.7393   32.4617    5.9308 C.3   351  UNL351      0.0330
   2103 H           7.4582   33.1292    6.7490 H     351  UNL351      0.0521
   2104 H           6.8570   31.9395    5.5528 H     351  UNL351      0.0521
   2105 H           8.1874   33.0464    5.1240 H     351  UNL351      0.0521
   2106 H           8.2600   31.0132    7.1097 H     351  UNL351      0.2090
   2107 O           6.0326   31.5489    8.1968 O.3   352  UNL352     -0.3982
   2108 C           5.9108   31.1366    9.5458 C.3   352  UNL352      0.0330
   2109 H           6.8166   30.6055    9.8487 H     352  UNL352      0.0521
   2110 H           5.0406   30.4841    9.6510 H     352  UNL352      0.0521
   2111 H           5.7802   32.0190   10.1766 H     352  UNL352      0.0521
   2112 H           6.1472   30.7451    7.6617 H     352  UNL352      0.2090
   2113 O           8.0868   33.1291   11.7503 O.3   353  UNL353     -0.3982
   2114 C           8.0991   32.0598   12.6783 C.3   353  UNL353      0.0330
   2115 H           8.0312   31.1100   12.1420 H     353  UNL353      0.0521
   2116 H           7.2561   32.1633   13.3659 H     353  UNL353      0.0521
   2117 H           9.0334   32.0906   13.2436 H     353  UNL353      0.0521
   2118 H           7.2465   33.0757   11.2640 H     353  UNL353      0.2090
   2119 O           5.2985   32.5918   16.9750 O.3   354  UNL354     -0.3982
   2120 C           5.5032   32.2691   15.6117 C.3   354  UNL354      0.0330
   2121 H           4.8781   31.4147   15.3407 H     354  UNL354      0.0521
   2122 H           6.5567   32.0300   15.4473 H     354  UNL354      0.0521
   2123 H           5.2269   33.1293   14.9976 H     354  UNL354      0.0521
   2124 H           5.5520   31.8101   17.4948 H     354  UNL354      0.2090
   2125 O           8.4680   32.7325   18.9346 O.3   355  UNL355     -0.3982
   2126 C           7.7176   32.6095   20.1289 C.3   355  UNL355      0.0330
   2127 H           7.5451   31.5522   20.3447 H     355  UNL355      0.0521
   2128 H           6.7634   33.1298   20.0159 H     355  UNL355      0.0521
   2129 H           8.2805   33.0595   20.9501 H     355  UNL355      0.0521
   2130 H           7.9436   32.3247   18.2245 H     355  UNL355      0.2090
   2131 O           5.3333   32.1697   23.7959 O.3   356  UNL356     -0.3982
   2132 C           5.9228   31.6374   22.6238 C.3   356  UNL356      0.0330
   2133 H           5.5129   30.6435   22.4278 H     356  UNL356      0.0521
   2134 H           7.0059   31.5772   22.7548 H     356  UNL356      0.0521
   2135 H           5.6958   32.2953   21.7817 H     356  UNL356      0.0521
   2136 H           5.5517   31.5650   24.5254 H     356  UNL356      0.2090
   2137 O           8.8204   32.4377   26.6846 O.3   357  UNL357     -0.3982
   2138 C           7.5742   31.8140   26.4347 C.3   357  UNL357      0.0330
   2139 H           6.8652   32.5536   26.0545 H     357  UNL357      0.0521
   2140 H           7.1952   31.3719   27.3594 H     357  UNL357      0.0521
   2141 H           7.7134   31.0285   25.6883 H     357  UNL357      0.0521
   2142 H           8.6653   33.1294   27.3502 H     357  UNL357      0.2090
   2143 O           4.8333   32.9934   29.5596 O.3   358  UNL358     -0.3982
   2144 C           6.2138   32.6846   29.6168 C.3   358  UNL358      0.0330
   2145 H           6.3468   31.6001   29.5937 H     358  UNL358      0.0521
   2146 H           6.6422   33.0955   30.5342 H     358  UNL358      0.0521
   2147 H           6.7134   33.1293   28.7529 H     358  UNL358      0.0521
   2148 H           4.4169   32.5859   30.3382 H     358  UNL358      0.2090
   2149 O           5.2714   32.6865   34.2391 O.3   359  UNL359     -0.3982
   2150 C           5.6000   32.4852   32.8768 C.3   359  UNL359      0.0330
   2151 H           5.4229   31.4407   32.6087 H     359  UNL359      0.0521
   2152 H           6.6494   32.7418   32.7125 H     359  UNL359      0.0521
   2153 H           4.9689   33.1294   32.2601 H     359  UNL359      0.0521
   2154 H           5.8471   32.1021   34.7612 H     359  UNL359      0.2090
   2155 O           8.0545   31.2224   37.2075 O.3   360  UNL360     -0.3982
   2156 C           7.6857   32.5845   37.3232 C.3   360  UNL360      0.0330
   2157 H           8.4638   33.1290   37.8639 H     360  UNL360      0.0521
   2158 H           6.7348   32.6614   37.8562 H     360  UNL360      0.0521
   2159 H           7.5753   33.0089   36.3226 H     360  UNL360      0.0521
   2160 H           8.1449   30.8732   38.1106 H     360  UNL360      0.2090
   2161 O          11.3667   -0.7268   -0.2500 O.3   361  UNL361     -0.3982
   2162 C          10.9954   -1.1981   -1.5324 C.3   361  UNL361      0.0330
   2163 H          10.2384   -1.9796   -1.4293 H     361  UNL361      0.0521
   2164 H          11.8755   -1.5940   -2.0449 H     361  UNL361      0.0521
   2165 H          10.5826   -0.3679   -2.1102 H     361  UNL361      0.0521
   2166 H          11.7292   -1.4850    0.2392 H     361  UNL361      0.2090
   2167 O          10.3072   -1.9568    2.3792 O.3   362  UNL362     -0.3982
   2168 C           9.8416   -0.6389    2.6045 C.3   362  UNL362      0.0330
   2169 H          10.1673    0.0085    1.7865 H     362  UNL362      0.0521
   2170 H          10.2357   -0.2698    3.5545 H     362  UNL362      0.0521
   2171 H           8.7499   -0.6498    2.6451 H     362  UNL362      0.0521
   2172 H          11.2782   -1.9154    2.3481 H     362  UNL362      0.2090
   2173 O           9.4519   -1.3836    5.7108 O.3   363  UNL363     -0.3982
   2174 C           9.2590   -1.4158    7.1130 C.3   363  UNL363      0.0330
   2175 H           8.3521   -1.9801    7.3441 H     363  UNL363      0.0521
   2176 H           9.1728   -0.3951    7.4934 H     363  UNL363      0.0521
   2177 H          10.1181   -1.9045    7.5787 H     363  UNL363      0.0521
   2178 H           8.6744   -0.9447    5.3255 H     363  UNL363      0.2090
   2179 O          10.3397    0.0700   10.1230 O.3   364  UNL364     -0.3982
   2180 C           8.9244    0.1079   10.1274 C.3   364  UNL364      0.0330
   2181 H           8.5671    0.2954   11.1430 H     364  UNL364      0.0521
   2182 H           8.5325   -0.8444    9.7618 H     364  UNL364      0.0521
   2183 H           8.5885    0.9138    9.4706 H     364  UNL364      0.0521
   2184 H          10.6080   -0.6541   10.7139 H     364  UNL364      0.2090
   2185 O           9.8046   -1.1361   13.1494 O.3   365  UNL365     -0.3982
   2186 C           8.4269   -1.1361   13.4756 C.3   365  UNL365      0.0330
   2187 H           8.2077   -1.9794   14.1352 H     365  UNL365      0.0521
   2188 H           7.8349   -1.2122   12.5603 H     365  UNL365      0.0521
   2189 H           8.1831   -0.2025   13.9880 H     365  UNL365      0.0521
   2190 H           9.9910   -1.9760   12.6962 H     365  UNL365      0.2090
   2191 O           9.3423   -1.9190   16.6422 O.3   366  UNL366     -0.3982
   2192 C          10.1855   -0.8260   16.3281 C.3   366  UNL366      0.0330
   2193 H          10.8170   -0.5926   17.1889 H     366  UNL366      0.0521
   2194 H           9.5758    0.0415   16.0641 H     366  UNL366      0.0521
   2195 H          10.8168   -1.0969   15.4786 H     366  UNL366      0.0521
   2196 H           8.7945   -1.6491   17.3989 H     366  UNL366      0.2090
   2197 O           9.8304   -0.0768   19.5714 O.3   367  UNL367     -0.3982
   2198 C          10.0351   -1.4683   19.7339 C.3   367  UNL367      0.0330
   2199 H          10.6488   -1.8456   18.9121 H     367  UNL367      0.0521
   2200 H           9.0699   -1.9804   19.7469 H     367  UNL367      0.0521
   2201 H          10.5508   -1.6433   20.6810 H     367  UNL367      0.0521
   2202 H           9.3713    0.0473   18.7232 H     367  UNL367      0.2090
   2203 O          10.1071   -1.8218   23.0444 O.3   368  UNL368     -0.3982
   2204 C           8.7292   -1.5397   22.8816 C.3   368  UNL368      0.0330
   2205 H           8.5789   -0.4577   22.8512 H     368  UNL368      0.0521
   2206 H           8.1671   -1.9732   23.7124 H     368  UNL368      0.0521
   2207 H           8.3850   -1.9797   21.9428 H     368  UNL368      0.0521
   2208 H          10.3837   -1.4192   23.8852 H     368  UNL368      0.2090
   2209 O          10.8596   -1.0995   26.6074 O.3   369  UNL369     -0.3982
   2210 C           9.4438   -1.0995   26.6074 C.3   369  UNL369      0.0330
   2211 H           9.0785   -1.8685   27.2926 H     369  UNL369      0.0521
   2212 H           9.0786   -1.2942   25.5961 H     369  UNL369      0.0521
   2213 H           9.0885   -0.1209   26.9386 H     369  UNL369      0.0521
   2214 H          11.1453   -1.9799   26.3094 H     369  UNL369      0.2090
   2215 O          10.5734   -0.4426   29.7193 O.3   370  UNL370     -0.3982
   2216 C           9.1576   -0.4426   29.7193 C.3   370  UNL370      0.0330
   2217 H           8.7923   -0.1532   30.7078 H     370  UNL370      0.0521
   2218 H           8.7924   -1.4397   29.4616 H     370  UNL370      0.0521
   2219 H           8.8023    0.2762   28.9772 H     370  UNL370      0.0521
   2220 H          10.8591   -1.0892   30.3869 H     370  UNL370      0.2090
   2221 O           9.4913   -1.0161   34.3338 O.3   371  UNL371     -0.3982
   2222 C           9.6473   -1.1487   32.9329 C.3   371  UNL371      0.0330
   2223 H           8.6730   -1.3298   32.4723 H     371  UNL371      0.0521
   2224 H          10.3240   -1.9793   32.7178 H     371  UNL371      0.0521
   2225 H          10.0705   -0.2241   32.5334 H     371  UNL371      0.0521
   2226 H           9.1144   -1.8512   34.6596 H     371  UNL371      0.2090
   2227 O           9.2229   -1.4684   37.2495 O.3   372  UNL372     -0.3982
   2228 C           9.5512   -0.0954   37.3567 C.3   372  UNL372      0.0330
   2229 H          10.2083    0.0570   38.2165 H     372  UNL372      0.0521
   2230 H           8.6366    0.4907   37.4751 H     372  UNL372      0.0521
   2231 H          10.0672    0.2187   36.4463 H     372  UNL372      0.0521
   2232 H           8.7665   -1.7180   38.0710 H     372  UNL372      0.2090
   2233 O          11.5568    1.8276   -2.1109 O.3   373  UNL373     -0.3982
   2234 C          11.4965    2.6718   -0.9759 C.3   373  UNL373      0.0330
   2235 H          12.3357    3.3716   -0.9962 H     373  UNL373      0.0521
   2236 H          11.5353    2.0658   -0.0675 H     373  UNL373      0.0521
   2237 H          10.5581    3.2309   -0.9985 H     373  UNL373      0.0521
   2238 H          12.3996    1.3448   -2.0634 H     373  UNL373      0.2090
   2239 O          10.9425    2.6898    2.3149 O.3   374  UNL374     -0.3982
   2240 C          10.5911    2.6817    3.6864 C.3   374  UNL374      0.0330
   2241 H          11.4900    2.5461    4.2930 H     374  UNL374      0.0521
   2242 H           9.8840    1.8709    3.8775 H     374  UNL374      0.0521
   2243 H          10.1242    3.6365    3.9392 H     374  UNL374      0.0521
   2244 H          11.3540    1.8306    2.1204 H     374  UNL374      0.2090
   2245 O          10.5546    1.5562    6.4226 O.3   375  UNL375     -0.3982
   2246 C           9.4333    2.1759    7.0252 C.3   375  UNL375      0.0330
   2247 H           9.2294    3.1266    6.5264 H     375  UNL375      0.0521
   2248 H           9.6353    2.3446    8.0857 H     375  UNL375      0.0521
   2249 H           8.5662    1.5193    6.9218 H     375  UNL375      0.0521
   2250 H          11.3078    2.1617    6.5302 H     375  UNL375      0.2090
   2251 O          12.0848    2.2840    8.9854 O.3   376  UNL376     -0.3982
   2252 C          11.6169    3.3629    9.7737 C.3   376  UNL376      0.0330
   2253 H          12.2931    4.2145    9.6656 H     376  UNL376      0.0521
   2254 H          11.5661    3.0549   10.8209 H     376  UNL376      0.0521
   2255 H          10.6191    3.6468    9.4310 H     376  UNL376      0.0521
   2256 H          12.9712    2.0544    9.3127 H     376  UNL376      0.2090
   2257 O           9.5123    2.0475   13.9584 O.3   377  UNL377     -0.3982
   2258 C           9.6785    2.3762   12.5913 C.3   377  UNL377      0.0330
   2259 H          10.0066    3.4148   12.5026 H     377  UNL377      0.0521
   2260 H           8.7317    2.2357   12.0642 H     377  UNL377      0.0521
   2261 H          10.4356    1.7188   12.1574 H     377  UNL377      0.0521
   2262 H           8.8351    2.6467   14.3160 H     377  UNL377      0.2090
   2263 O          11.2426    2.2151   16.3733 O.3   378  UNL378     -0.3982
   2264 C          11.0294    3.6113   16.2761 C.3   378  UNL378      0.0330
   2265 H          11.4832    3.9869   15.3556 H     378  UNL378      0.0521
   2266 H          11.4714    4.1095   17.1424 H     378  UNL378      0.0521
   2267 H           9.9546    3.8061   16.2557 H     378  UNL378      0.0521
   2268 H          12.2044    2.0733   16.3894 H     378  UNL378      0.2090
   2269 O           9.5071    3.0177   20.5931 O.3   379  UNL379     -0.3982
   2270 C          10.3305    3.1737   19.4519 C.3   379  UNL379      0.0330
   2271 H          10.1029    2.3882   18.7271 H     379  UNL379      0.0521
   2272 H          11.3806    3.1173   19.7488 H     379  UNL379      0.0521
   2273 H          10.1332    4.1497   19.0022 H     379  UNL379      0.0521
   2274 H           9.7044    2.1434   20.9703 H     379  UNL379      0.2090
   2275 O          11.5082    2.9966   23.0931 O.3   380  UNL380     -0.3982
   2276 C          10.8109    1.8179   23.4522 C.3   380  UNL380      0.0330
   2277 H          11.0507    1.5519   24.4847 H     380  UNL380      0.0521
   2278 H          11.0964    1.0055   22.7796 H     380  UNL380      0.0521
   2279 H           9.7372    1.9998   23.3651 H     380  UNL380      0.0521
   2280 H          12.4575    2.8047   23.1800 H     380  UNL380      0.2090
   2281 O           9.1611    2.2557   27.5524 O.3   381  UNL381     -0.3982
   2282 C          10.3410    2.6186   26.8591 C.3   381  UNL381      0.0330
   2283 H          10.8856    3.3716   27.4341 H     381  UNL381      0.0521
   2284 H          10.0791    3.0152   25.8752 H     381  UNL381      0.0521
   2285 H          10.9682    1.7324   26.7370 H     381  UNL381      0.0521
   2286 H           8.6251    3.0616   27.6455 H     381  UNL381      0.2090
   2287 O          12.1304    2.1633   29.7558 O.3   382  UNL382     -0.3982
   2288 C          11.1047    2.9731   30.3006 C.3   382  UNL382      0.0330
   2289 H          11.5156    3.5942   31.1004 H     382  UNL382      0.0521
   2290 H          10.3066    2.3375   30.6918 H     382  UNL382      0.0521
   2291 H          10.7032    3.6153   29.5133 H     382  UNL382      0.0521
   2292 H          12.4670    1.6049   30.4772 H     382  UNL382      0.2090
   2293 O           9.7973    3.4832   33.7968 O.3   383  UNL383     -0.3982
   2294 C           9.4085    2.1278   33.6693 C.3   383  UNL383      0.0330
   2295 H           8.4144    1.9907   34.1021 H     383  UNL383      0.0521
   2296 H          10.1323    1.4904   34.1830 H     383  UNL383      0.0521
   2297 H           9.3817    1.8641   32.6095 H     383  UNL383      0.0521
   2298 H           9.8122    3.6880   34.7473 H     383  UNL383      0.2090
   2299 O          10.4953    3.6977   37.5318 O.3   384  UNL384     -0.3982
   2300 C           9.1176    3.3715   37.5318 C.3   384  UNL384      0.0330
   2301 H           8.9392    2.5391   38.2170 H     384  UNL384      0.0521
   2302 H           8.8070    3.0979   36.5205 H     384  UNL384      0.0521
   2303 H           8.5464    4.2420   37.8630 H     384  UNL384      0.0521
   2304 H          10.9761    2.9068   37.2338 H     384  UNL384      0.2090
   2305 O          11.1930    5.6445   -1.6338 O.3   385  UNL385     -0.3982
   2306 C          10.9969    7.0427   -1.5296 C.3   385  UNL385      0.0330
   2307 H          11.8714    7.5648   -1.9256 H     385  UNL385      0.0521
   2308 H          10.8414    7.3126   -0.4822 H     385  UNL385      0.0521
   2309 H          10.1146    7.3220   -2.1103 H     385  UNL385      0.0521
   2310 H          11.9820    5.4267   -1.1088 H     385  UNL385      0.2090
   2311 O          12.0764    5.8638    1.5137 O.3   386  UNL386     -0.3982
   2312 C          10.6701    5.8828    1.6768 C.3   386  UNL386      0.0330
   2313 H          10.3868    5.2028    2.4840 H     386  UNL386      0.0521
   2314 H          10.1901    5.5778    0.7437 H     386  UNL386      0.0521
   2315 H          10.3556    6.8977    1.9310 H     386  UNL386      0.0521
   2316 H          12.3256    4.9511    1.2889 H     386  UNL386      0.2090
   2317 O          11.1176    6.2450    5.9743 O.3   387  UNL387     -0.3982
   2318 C           9.7730    6.6045    5.7146 C.3   387  UNL387      0.0330
   2319 H           9.1278    5.7343    5.8590 H     387  UNL387      0.0521
   2320 H           9.6845    6.9709    4.6890 H     387  UNL387      0.0521
   2321 H           9.4762    7.3945    6.4083 H     387  UNL387      0.0521
   2322 H          11.3524    5.5428    5.3439 H     387  UNL387      0.2090
   2323 O          10.3897    6.1232   10.2873 O.3   388  UNL388     -0.3982
   2324 C          10.2597    6.3752    8.9002 C.3   388  UNL388      0.0330
   2325 H           9.4471    7.0866    8.7328 H     388  UNL388      0.0521
   2326 H          10.0521    5.4388    8.3768 H     388  UNL388      0.0521
   2327 H          11.1948    6.7992    8.5269 H     388  UNL388      0.0521
   2328 H           9.5453    5.7478   10.5899 H     388  UNL388      0.2090
   2329 O          12.6431    7.6945   13.7868 O.3   389  UNL389     -0.3982
   2330 C          11.9092    6.9925   12.8004 C.3   389  UNL389      0.0330
   2331 H          11.2109    6.3053   13.2846 H     389  UNL389      0.0521
   2332 H          12.5978    6.4372   12.1590 H     389  UNL389      0.0521
   2333 H          11.3502    7.7104   12.1956 H     389  UNL389      0.0521
   2334 H          13.1285    7.0318   14.3073 H     389  UNL389      0.2090
   2335 O          11.0249    6.8185   15.8475 O.3   390  UNL390     -0.3982
   2336 C          10.6955    6.8272   17.2244 C.3   390  UNL390      0.0330
   2337 H          10.2488    5.8684   17.4993 H     390  UNL390      0.0521
   2338 H           9.9934    7.6397   17.4269 H     390  UNL390      0.0521
   2339 H          11.6067    6.9824   17.8068 H     390  UNL390      0.0521
   2340 H          10.1971    6.6791   15.3566 H     390  UNL390      0.2090
   2341 O          11.3227    6.5455   20.5101 O.3   391  UNL391     -0.3982
   2342 C           9.9490    6.8393   20.3339 C.3   391  UNL391      0.0330
   2343 H           9.4176    6.6793   21.2753 H     391  UNL391      0.0521
   2344 H           9.5346    6.1944   19.5551 H     391  UNL391      0.0521
   2345 H           9.8449    7.8841   20.0322 H     391  UNL391      0.0521
   2346 H          11.3834    5.6125   20.7772 H     391  UNL391      0.2090
   2347 O           9.9704    5.0407   24.6811 O.3   392  UNL392     -0.3982
   2348 C          10.4400    6.0010   23.7528 C.3   392  UNL392      0.0330
   2349 H          11.4216    6.3639   24.0676 H     392  UNL392      0.0521
   2350 H           9.7329    6.8322   23.6979 H     392  UNL392      0.0521
   2351 H          10.5253    5.5326   22.7695 H     392  UNL392      0.0521
   2352 H           9.9049    5.4852   25.5435 H     392  UNL392      0.2090
   2353 O          12.3114    5.7756   26.4825 O.3   393  UNL393     -0.3982
   2354 C          11.6323    6.0696   27.6894 C.3   393  UNL393      0.0330
   2355 H          10.5838    6.2903   27.4742 H     393  UNL393      0.0521
   2356 H          12.1041    6.9277   28.1743 H     393  UNL393      0.0521
   2357 H          11.6915    5.2021   28.3509 H     393  UNL393      0.0521
   2358 H          12.2419    6.5631   25.9164 H     393  UNL393      0.2090
   2359 O          10.8509    7.4118   30.4090 O.3   394  UNL394     -0.3982
   2360 C           9.5285    6.9183   30.2980 C.3   394  UNL394      0.0330
   2361 H           9.3764    6.1149   31.0230 H     394  UNL394      0.0521
   2362 H           9.3617    6.5455   29.2845 H     394  UNL394      0.0521
   2363 H           8.8277    7.7305   30.5050 H     394  UNL394      0.0521
   2364 H          11.4497    6.6693   30.2200 H     394  UNL394      0.2090
   2365 O          10.6794    6.4311   34.8381 O.3   395  UNL395     -0.3982
   2366 C           9.7950    6.5702   33.7413 C.3   395  UNL395      0.0330
   2367 H           9.0215    5.8002   33.7957 H     395  UNL395      0.0521
   2368 H          10.3538    6.4750   32.8071 H     395  UNL395      0.0521
   2369 H           9.3276    7.5568   33.7847 H     395  UNL395      0.0521
   2370 H          11.0787    5.5469   34.7727 H     395  UNL395      0.2090
   2371 O          10.6434    7.6743   37.5318 O.3   396  UNL396     -0.3982
   2372 C           9.2657    7.3482   37.5318 C.3   396  UNL396      0.0330
   2373 H           9.0874    6.5157   38.2170 H     396  UNL396      0.0521
   2374 H           8.9552    7.0746   36.5205 H     396  UNL396      0.0521
   2375 H           8.6945    8.2186   37.8630 H     396  UNL396      0.0521
   2376 H          11.1243    6.8834   37.2338 H     396  UNL396      0.2090
   2377 O          12.0186   10.3686   -1.0587 O.3   397  UNL397     -0.3982
   2378 C          10.6118   10.2088   -1.0630 C.3   397  UNL397      0.0330
   2379 H          10.3261    9.4673   -0.3128 H     397  UNL397      0.0521
   2380 H          10.2841    9.8853   -2.0540 H     397  UNL397      0.0521
   2381 H          10.1447   11.1666   -0.8219 H     397  UNL397      0.0521
   2382 H          12.4051    9.5031   -1.2758 H     397  UNL397      0.2090
   2383 O          11.4166    9.1815    2.2470 O.3   398  UNL398     -0.3982
   2384 C          10.0945    9.6354    2.4718 C.3   398  UNL398      0.0330
   2385 H           9.4270    8.7770    2.5804 H     398  UNL398      0.0521
   2386 H           9.7736   10.2560    1.6316 H     398  UNL398      0.0521
   2387 H          10.0737   10.2287    3.3889 H     398  UNL398      0.0521
   2388 H          11.4036    8.6586    1.4272 H     398  UNL398      0.2090
   2389 O          12.3431   11.1887    6.5399 O.3   399  UNL399     -0.3982
   2390 C          11.6871    9.9895    6.1710 C.3   399  UNL399      0.0330
   2391 H          12.4208    9.2731    5.7932 H     399  UNL399      0.0521
   2392 H          10.9410   10.2031    5.4017 H     399  UNL399      0.0521
   2393 H          11.1914    9.5708    7.0499 H     399  UNL399      0.0521
   2394 H          12.7733   11.5367    5.7403 H     399  UNL399      0.2090
   2395 O          11.1924   10.6045    9.6179 O.3   400  UNL400     -0.3982
   2396 C          10.3444    9.5204    9.9500 C.3   400  UNL400      0.0330
   2397 H          10.9464    8.6836   10.3128 H     400  UNL400      0.0521
   2398 H           9.7754    9.2182    9.0675 H     400  UNL400      0.0521
   2399 H           9.6539    9.8371   10.7352 H     400  UNL400      0.0521
   2400 H          11.7933   10.2936    8.9195 H     400  UNL400      0.2090
   2401 O          10.0050    9.3934   13.0937 O.3   401  UNL401     -0.3982
   2402 C          10.5354   10.6985   13.2351 C.3   401  UNL401      0.0330
   2403 H          11.5776   10.6363   13.5580 H     401  UNL401      0.0521
   2404 H           9.9476   11.2539   13.9700 H     401  UNL401      0.0521
   2405 H          10.4848   11.2090   12.2705 H     401  UNL401      0.0521
   2406 H          10.0632    8.9655   13.9649 H     401  UNL401      0.2090
   2407 O          10.2904   10.5032   17.7065 O.3   402  UNL402     -0.3982
   2408 C          10.7953    9.9719   16.4952 C.3   402  UNL402      0.0330
   2409 H          10.0367    9.3373   16.0304 H     402  UNL402      0.0521
   2410 H          11.6972    9.3897   16.6997 H     402  UNL402      0.0521
   2411 H          11.0411   10.7957   15.8211 H     402  UNL402      0.0521
   2412 H          10.0814    9.7493   18.2840 H     402  UNL402      0.2090
   2413 O          11.2753   10.1913   20.5716 O.3   403  UNL403     -0.3982
   2414 C          12.4389   10.3760   19.7865 C.3   403  UNL403      0.0330
   2415 H          12.4119    9.6996   18.9285 H     403  UNL403      0.0521
   2416 H          13.3249   10.1760   20.3939 H     403  UNL403      0.0521
   2417 H          12.4683   11.4091   19.4324 H     403  UNL403      0.0521
   2418 H          11.2768    9.2663   20.8713 H     403  UNL403      0.2090
   2419 O          11.0687    9.3742   23.4711 O.3   404  UNL404     -0.3982
   2420 C           9.6922    9.3742   23.1401 C.3   404  UNL404      0.0330
   2421 H           9.4199   10.3412   22.7098 H     404  UNL404      0.0521
   2422 H           9.1005    9.1838   24.0388 H     404  UNL404      0.0521
   2423 H           9.5028    8.5858   22.4080 H     404  UNL404      0.0521
   2424 H          11.2061   10.0836   24.1219 H     404  UNL404      0.2090
   2425 O          10.1425    9.2854   26.3676 O.3   405  UNL405     -0.3982
   2426 C          10.0140   10.6954   26.3676 C.3   405  UNL405      0.0330
   2427 H          10.9859   11.1507   26.5736 H     405  UNL405      0.0521
   2428 H           9.2901   10.9961   27.1288 H     405  UNL405      0.0521
   2429 H           9.6628   11.0202   25.3854 H     405  UNL405      0.0521
   2430 H          10.4554    9.0270   27.2512 H     405  UNL405      0.2090
   2431 O           9.8103   10.4838   31.0151 O.3   406  UNL406     -0.3982
   2432 C          10.1664   10.4319   29.6458 C.3   406  UNL406      0.0330
   2433 H           9.3653    9.9523   29.0780 H     406  UNL406      0.0521
   2434 H          11.0960    9.8692   29.5313 H     406  UNL406      0.0521
   2435 H          10.3117   11.4502   29.2777 H     406  UNL406      0.0521
   2436 H           9.6881    9.5665   31.3135 H     406  UNL406      0.2090
   2437 O          12.3650    9.2437   34.3779 O.3   407  UNL407     -0.3982
   2438 C          11.5684    9.2436   33.2075 C.3   407  UNL407      0.0330
   2439 H          10.5189    9.3809   33.4799 H     407  UNL407      0.0521
   2440 H          11.6975    8.2966   32.6779 H     407  UNL407      0.0521
   2441 H          11.8855   10.0659   32.5618 H     407  UNL407      0.0521
   2442 H          12.0606    8.5039   34.9307 H     407  UNL407      0.2090
   2443 O          10.1068   10.7023   37.5618 O.3   408  UNL408     -0.3982
   2444 C           9.8363   10.4898   36.1884 C.3   408  UNL408      0.0330
   2445 H           8.9370   11.0415   35.9035 H     408  UNL408      0.0521
   2446 H           9.6950    9.4219   36.0050 H     408  UNL408      0.0521
   2447 H          10.6835   10.8494   35.5996 H     408  UNL408      0.0521
   2448 H           9.3381   10.3737   38.0585 H     408  UNL408      0.2090
   2449 O          10.7151   13.3839   -1.8638 O.3   409  UNL409     -0.3982
   2450 C           9.8636   14.4699   -1.5475 C.3   409  UNL409      0.0330
   2451 H          10.3516   15.4086   -1.8214 H     409  UNL409      0.0521
   2452 H           9.6422   14.4607   -0.4775 H     409  UNL409      0.0521
   2453 H           8.9331   14.3675   -2.1108 H     409  UNL409      0.0521
   2454 H          11.5318   13.5020   -1.3494 H     409  UNL409      0.2090
   2455 O          11.0458   12.5783    1.5664 O.3   410  UNL410     -0.3982
   2456 C          11.1259   13.9918    1.5789 C.3   410  UNL410      0.0330
   2457 H          11.6302   14.3371    0.6730 H     410  UNL410      0.0521
   2458 H          11.6782   14.3186    2.4633 H     410  UNL410      0.0521
   2459 H          10.1148   14.4047    1.6103 H     410  UNL410      0.0521
   2460 H          11.9573   12.2408    1.5385 H     410  UNL410      0.2090
   2461 O          11.0920   12.9040    4.5908 O.3   411  UNL411     -0.3982
   2462 C           9.7631   13.3925    4.5908 C.3   411  UNL411      0.0330
   2463 H           9.1549   12.7967    5.2760 H     411  UNL411      0.0521
   2464 H           9.3531   13.3357    3.5795 H     411  UNL411      0.0521
   2465 H           9.7672   14.4336    4.9220 H     411  UNL411      0.0521
   2466 H          11.0564   11.9791    4.2928 H     411  UNL411      0.2090
   2467 O           9.9577   13.5971    8.1397 O.3   412  UNL412     -0.3982
   2468 C          10.5857   13.4340    9.3980 C.3   412  UNL412      0.0330
   2469 H          10.0097   12.7314   10.0054 H     412  UNL412      0.0521
   2470 H          10.6494   14.4011    9.9025 H     412  UNL412      0.0521
   2471 H          11.5925   13.0388    9.2441 H     412  UNL412      0.0521
   2472 H           9.0669   13.9488    8.3084 H     412  UNL412      0.2090
   2473 O          10.2552   14.1256   13.8684 O.3   413  UNL413     -0.3982
   2474 C           9.9108   13.8109   12.5316 C.3   413  UNL413      0.0330
   2475 H           9.0563   13.1296   12.5253 H     413  UNL413      0.0521
   2476 H          10.7652   13.3454   12.0343 H     413  UNL413      0.0521
   2477 H           9.6440   14.7315   12.0073 H     413  UNL413      0.0521
   2478 H          10.4870   13.2899   14.3080 H     413  UNL413      0.2090
   2479 O          11.1133   13.2813   17.0872 O.3   414  UNL414     -0.3982
   2480 C          12.0746   14.2272   16.6563 C.3   414  UNL414      0.0330
   2481 H          11.6297   14.8834   15.9042 H     414  UNL414      0.0521
   2482 H          12.9374   13.7052   16.2354 H     414  UNL414      0.0521
   2483 H          12.3951   14.8238   17.5136 H     414  UNL414      0.0521
   2484 H          10.8480   12.7672   16.3056 H     414  UNL414      0.2090
   2485 O           9.6248   13.2788   19.6553 O.3   415  UNL415     -0.3982
   2486 C           9.8170   14.6797   19.7260 C.3   415  UNL415      0.0330
   2487 H          10.1381   15.0540   18.7507 H     415  UNL415      0.0521
   2488 H          10.5722   14.9071   20.4822 H     415  UNL415      0.0521
   2489 H           8.8727   15.1544   20.0030 H     415  UNL415      0.0521
   2490 H          10.4789   12.8854   19.4078 H     415  UNL415      0.2090
   2491 O          10.9086   14.0941   23.1021 O.3   416  UNL416     -0.3982
   2492 C          10.8203   12.6932   22.9173 C.3   416  UNL416      0.0330
   2493 H          11.0878   12.4430   21.8877 H     416  UNL416      0.0521
   2494 H           9.8020   12.3600   23.1318 H     416  UNL416      0.0521
   2495 H          11.5144   12.2001   23.6019 H     416  UNL416      0.0521
   2496 H          10.2820   14.5042   22.4818 H     416  UNL416      0.2090
   2497 O          10.3189   13.8875   27.4381 O.3   417  UNL417     -0.3982
   2498 C          10.1987   13.9160   26.0277 C.3   417  UNL417      0.0330
   2499 H           9.3263   13.3323   25.7236 H     417  UNL417      0.0521
   2500 H          11.1032   13.5018   25.5757 H     417  UNL417      0.0521
   2501 H          10.0729   14.9514   25.7026 H     417  UNL417      0.0521
   2502 H          10.4292   12.9567   27.6967 H     417  UNL417      0.2090
   2503 O          12.1546   13.0076   30.1002 O.3   418  UNL418     -0.3982
   2504 C          11.5105   14.2512   30.3074 C.3   418  UNL418      0.0330
   2505 H          10.4560   14.1666   30.0333 H     418  UNL418      0.0521
   2506 H          11.9954   15.0193   29.7000 H     418  UNL418      0.0521
   2507 H          11.5898   14.5209   31.3631 H     418  UNL418      0.0521
   2508 H          12.0678   12.7948   29.1553 H     418  UNL418      0.2090
   2509 O           8.8140   12.6916   33.5294 O.3   419  UNL419     -0.3982
   2510 C           9.6332   13.8384   33.3955 C.3   419  UNL419      0.0330
   2511 H           9.7723   14.0664   32.3357 H     419  UNL419      0.0521
   2512 H          10.6004   13.6537   33.8693 H     419  UNL419      0.0521
   2513 H           9.1448   14.6833   33.8866 H     419  UNL419      0.0521
   2514 H           9.2730   11.9590   33.0843 H     419  UNL419      0.2090
   2515 O           9.8365   13.5599   37.8910 O.3   420  UNL420     -0.3982
   2516 C           9.7836   13.7577   36.4901 C.3   420  UNL420      0.0330
   2517 H          10.6880   13.3524   36.0296 H     420  UNL420      0.0521
   2518 H           9.6994   14.8257   36.2750 H     420  UNL420      0.0521
   2519 H           8.9096   13.2378   36.0907 H     420  UNL420      0.0521
   2520 H          10.6215   14.0323   38.2168 H     420  UNL420      0.2090
   2521 O          11.1012   16.9398    0.2347 O.3   421  UNL421     -0.3982
   2522 C           9.6949   17.1040    0.2347 C.3   421  UNL421      0.0330
   2523 H           9.4236   17.9303    0.8965 H     421  UNL421      0.0521
   2524 H           9.2194   16.1804    0.5736 H     421  UNL421      0.0521
   2525 H           9.3636   17.3302   -0.7815 H     421  UNL421      0.0521
   2526 H          11.3655   16.7403    1.1489 H     421  UNL421      0.2090
   2527 O          10.3656   16.3840    3.4966 O.3   422  UNL422     -0.3982
   2528 C          10.5581   17.7849    3.5666 C.3   422  UNL422      0.0330
   2529 H           9.6585   18.2576    3.9686 H     422  UNL422      0.0521
   2530 H          10.7722   18.1744    2.5684 H     422  UNL422      0.0521
   2531 H          11.4032   17.9950    4.2263 H     422  UNL422      0.0521
   2532 H           9.6099   16.2286    2.9048 H     422  UNL422      0.2090
   2533 O          10.1205   17.8544    6.7070 O.3   423  UNL423     -0.3982
   2534 C           9.8371   16.4821    6.5045 C.3   423  UNL423      0.0330
   2535 H           8.9935   16.3809    5.8171 H     423  UNL423      0.0521
   2536 H           9.5987   16.0132    7.4622 H     423  UNL423      0.0521
   2537 H          10.7161   15.9977    6.0729 H     423  UNL423      0.0521
   2538 H           9.3229   18.2573    7.0905 H     423  UNL423      0.2090
   2539 O          12.1768   16.6070   10.4070 O.3   424  UNL424     -0.3982
   2540 C          11.0652   17.1338    9.7062 C.3   424  UNL424      0.0330
   2541 H          10.4424   16.3139    9.3398 H     424  UNL424      0.0521
   2542 H          11.4161   17.7414    8.8685 H     424  UNL424      0.0521
   2543 H          10.4798   17.7576   10.3858 H     424  UNL424      0.0521
   2544 H          12.6768   16.0585    9.7788 H     424  UNL424      0.2090
   2545 O          10.7382   17.1350   13.0277 O.3   425  UNL425     -0.3982
   2546 C           9.3319   17.1350   13.1919 C.3   425  UNL425      0.0330
   2547 H           9.0377   16.2917   13.8217 H     425  UNL425      0.0521
   2548 H           8.8501   17.0589   12.2141 H     425  UNL425      0.0521
   2549 H           9.0303   18.0686   13.6726 H     425  UNL425      0.0521
   2550 H          10.9758   16.2951   12.5992 H     425  UNL425      0.2090
   2551 O          11.7997   17.2706   17.2105 O.3   426  UNL426     -0.3982
   2552 C          10.9278   17.6247   16.1527 C.3   426  UNL426      0.0330
   2553 H          10.0506   18.1353   16.5577 H     426  UNL426      0.0521
   2554 H          10.6223   16.7242   15.6144 H     426  UNL426      0.0521
   2555 H          11.4533   18.2949   15.4684 H     426  UNL426      0.0521
   2556 H          11.3061   16.6761   17.8008 H     426  UNL426      0.2090
   2557 O           9.4706   18.1578   20.8321 O.3   427  UNL427     -0.3982
   2558 C           9.6698   18.2049   19.4312 C.3   427  UNL427      0.0330
   2559 H           9.2386   17.3126   18.9707 H     427  UNL427      0.0521
   2560 H          10.7398   18.2582   19.2161 H     427  UNL427      0.0521
   2561 H           9.1755   19.0936   19.0318 H     427  UNL427      0.0521
   2562 H           9.9201   17.3595   21.1579 H     427  UNL427      0.2090
   2563 O          11.8121   18.4195   23.5189 O.3   428  UNL428     -0.3982
   2564 C          11.7955   17.0087   23.6368 C.3   428  UNL428      0.0330
   2565 H          12.8185   16.6388   23.7415 H     428  UNL428      0.0521
   2566 H          11.3283   16.5736   22.7500 H     428  UNL428      0.0521
   2567 H          11.2182   16.7329   24.5224 H     428  UNL428      0.0521
   2568 H          12.3310   18.6337   22.7250 H     428  UNL428      0.2090
   2569 O          11.0132   17.0497   27.3124 O.3   429  UNL429     -0.3982
   2570 C           9.6069   17.1056   27.1580 C.3   429  UNL429      0.0330
   2571 H           9.1758   16.1262   27.3802 H     429  UNL429      0.0521
   2572 H           9.3633   17.3990   26.1340 H     429  UNL429      0.0521
   2573 H           9.2023   17.8454   27.8527 H     429  UNL429      0.0521
   2574 H          11.3434   16.3855   26.6837 H     429  UNL429      0.2090
   2575 O          10.0679   16.6601   29.9312 O.3   430  UNL430     -0.3982
   2576 C          10.7026   17.8263   30.4228 C.3   430  UNL430      0.0330
   2577 H          11.5494   17.5434   31.0529 H     430  UNL430      0.0521
   2578 H           9.9863   18.4162   30.9999 H     430  UNL430      0.0521
   2579 H          11.0618   18.4184   29.5778 H     430  UNL430      0.0521
   2580 H           9.7600   16.1555   30.7032 H     430  UNL430      0.2090
   2581 O           9.6338   17.3746   34.7690 O.3   431  UNL431     -0.3982
   2582 C           9.1823   17.4273   33.4281 C.3   431  UNL431      0.0330
   2583 H           8.3321   16.7523   33.3022 H     431  UNL431      0.0521
   2584 H           9.9946   17.1364   32.7576 H     431  UNL431      0.0521
   2585 H           8.8710   18.4489   33.1980 H     431  UNL431      0.0521
   2586 H           9.9031   16.4567   34.9439 H     431  UNL431      0.2090
   2587 O          10.2479   17.5472   37.6086 O.3   432  UNL432     -0.3982
   2588 C          11.6045   17.1448   37.6556 C.3   432  UNL432      0.0330
   2589 H          11.9799   17.0064   36.6386 H     432  UNL432      0.0521
   2590 H          11.6892   16.2111   38.2169 H     432  UNL432      0.0521
   2591 H          12.1885   17.9216   38.1547 H     432  UNL432      0.0521
   2592 H           9.7551   16.8387   37.1607 H     432  UNL432      0.2090
   2593 O           9.8726   20.0038   -2.0198 O.3   433  UNL433     -0.3982
   2594 C          11.1449   19.6335   -1.5214 C.3   433  UNL433      0.0330
   2595 H          11.5406   18.8027   -2.1110 H     433  UNL433      0.0521
   2596 H          11.0551   19.3398   -0.4728 H     433  UNL433      0.0521
   2597 H          11.8205   20.4884   -1.6015 H     433  UNL433      0.0521
   2598 H           9.2953   19.2258   -1.9358 H     433  UNL433      0.2090
   2599 O           9.6521   20.8397    2.8424 O.3   434  UNL434     -0.3982
   2600 C          10.7483   20.8951    1.9481 C.3   434  UNL434      0.0330
   2601 H          11.3084   21.8188    2.1135 H     434  UNL434      0.0521
   2602 H          10.3825   20.8576    0.9192 H     434  UNL434      0.0521
   2603 H          11.4006   20.0382    2.1321 H     434  UNL434      0.0521
   2604 H           9.0916   21.6120    2.6555 H     434  UNL434      0.2090
   2605 O           9.4455   20.8844    5.8994 O.3   435  UNL435     -0.3982
   2606 C          10.8584   20.8571    5.8131 C.3   435  UNL435      0.0330
   2607 H          11.1572   20.5825    4.7984 H     435  UNL435      0.0521
   2608 H          11.2541   20.1329    6.5294 H     435  UNL435      0.0521
   2609 H          11.2481   21.8500    6.0493 H     435  UNL435      0.0521
   2610 H           9.1288   19.9904    5.6848 H     435  UNL435      0.2090
   2611 O          10.5214   19.9599    9.2755 O.3   436  UNL436     -0.3982
   2612 C          10.6427   21.3608    9.1105 C.3   436  UNL436      0.0330
   2613 H           9.7156   21.7611    8.6926 H     436  UNL436      0.0521
   2614 H          11.4798   21.5788    8.4429 H     436  UNL436      0.0521
   2615 H          10.8279   21.8186   10.0850 H     436  UNL436      0.0521
   2616 H          10.3577   19.5816    8.3948 H     436  UNL436      0.2090
   2617 O          11.7039   21.1270   12.4537 O.3   437  UNL437     -0.3982
   2618 C          10.7755   20.0738   12.2714 C.3   437  UNL437      0.0330
   2619 H           9.9044   20.4450   11.7258 H     437  UNL437      0.0521
   2620 H          10.4698   19.6838   13.2452 H     437  UNL437      0.0521
   2621 H          11.2512   19.2767   11.6951 H     437  UNL437      0.0521
   2622 H          11.2538   21.8189   12.9678 H     437  UNL437      0.2090
   2623 O          10.3633   20.7455   16.0181 O.3   438  UNL438     -0.3982
   2624 C           9.0053   20.7361   16.4184 C.3   438  UNL438      0.0330
   2625 H           8.3640   20.8076   15.5364 H     438  UNL438      0.0521
   2626 H           8.8163   21.5780   17.0888 H     438  UNL438      0.0521
   2627 H           8.7961   19.8011   16.9435 H     438  UNL438      0.0521
   2628 H          10.5189   21.5865   15.5554 H     438  UNL438      0.2090
   2629 O          12.4107   20.6597   20.5600 O.3   439  UNL439     -0.3982
   2630 C          11.6195   20.8394   19.3998 C.3   439  UNL439      0.0330
   2631 H          10.5612   20.7909   19.6682 H     439  UNL439      0.0521
   2632 H          11.8576   20.0607   18.6711 H     439  UNL439      0.0521
   2633 H          11.8391   21.8187   18.9681 H     439  UNL439      0.0521
   2634 H          12.1942   19.7830   20.9205 H     439  UNL439      0.2090
   2635 O           9.2660   21.8374   23.2829 O.3   440  UNL440     -0.3982
   2636 C          10.5857   21.5102   22.8883 C.3   440  UNL440      0.0330
   2637 H          10.8612   22.0995   22.0102 H     440  UNL440      0.0521
   2638 H          10.6441   20.4437   22.6575 H     440  UNL440      0.0521
   2639 H          11.2695   21.7411   23.7085 H     440  UNL440      0.0521
   2640 H           8.6826   21.6218   22.5356 H     440  UNL440      0.2090
   2641 O           9.9820   21.4613   26.0615 O.3   441  UNL441     -0.3982
   2642 C           9.8448   20.0614   26.2225 C.3   441  UNL441      0.0330
   2643 H           9.1075   19.8539   27.0020 H     441  UNL441      0.0521
   2644 H          10.8105   19.6288   26.4950 H     441  UNL441      0.0521
   2645 H           9.5065   19.6267   25.2790 H     441  UNL441      0.0521
   2646 H          10.2831   21.8189   26.9142 H     441  UNL441      0.2090
   2647 O           9.9102   20.9346   30.8996 O.3   442  UNL442     -0.3982
   2648 C           9.8919   21.0114   29.4860 C.3   442  UNL442      0.0330
   2649 H           9.8638   20.0030   29.0657 H     442  UNL442      0.0521
   2650 H          10.7835   21.5382   29.1373 H     442  UNL442      0.0521
   2651 H           9.0009   21.5598   29.1714 H     442  UNL442      0.0521
   2652 H          10.7114   20.4430   31.1487 H     442  UNL442      0.2090
   2653 O          12.5083   21.4421   34.4018 O.3   443  UNL443     -0.3982
   2654 C          11.8944   20.5667   33.4738 C.3   443  UNL443      0.0330
   2655 H          12.4181   20.6238   32.5162 H     443  UNL443      0.0521
   2656 H          10.8462   20.8473   33.3453 H     443  UNL443      0.0521
   2657 H          11.9515   19.5453   33.8574 H     443  UNL443      0.0521
   2658 H          12.4422   22.3400   34.0344 H     443  UNL443      0.2090
   2659 O           9.7820   20.5122   37.8584 O.3   444  UNL444     -0.3982
   2660 C           9.6016   20.6090   36.4575 C.3   444  UNL444      0.0330
   2661 H           8.7023   21.1922   36.2445 H     444  UNL444      0.0521
   2662 H           9.5086   19.6072   36.0312 H     444  UNL444      0.0521
   2663 H          10.4694   21.1091   36.0212 H     444  UNL444      0.0521
   2664 H           8.9969   20.0646   38.2173 H     444  UNL444      0.2090
   2665 O          10.5403   24.3923   -1.1821 O.3   445  UNL445     -0.3982
   2666 C          10.4973   22.9902   -0.9910 C.3   445  UNL445      0.0330
   2667 H          11.5108   22.5840   -1.0365 H     445  UNL445      0.0521
   2668 H           9.8757   22.5349   -1.7658 H     445  UNL445      0.0521
   2669 H          10.0660   22.7784   -0.0098 H     445  UNL445      0.0521
   2670 H          10.9273   24.5492   -2.0603 H     445  UNL445      0.2090
   2671 O          10.2819   24.0819    2.3064 O.3   446  UNL446     -0.3982
   2672 C           8.9353   24.4023    2.6041 C.3   446  UNL446      0.0330
   2673 H           8.9060   25.2192    3.3296 H     446  UNL446      0.0521
   2674 H           8.4316   23.5218    3.0102 H     446  UNL446      0.0521
   2675 H           8.4332   24.7154    1.6857 H     446  UNL446      0.0521
   2676 H          10.7013   23.8079    3.1398 H     446  UNL446      0.2090
   2677 O          10.6028   25.1954    5.5856 O.3   447  UNL447     -0.3982
   2678 C          12.0059   25.0498    5.4651 C.3   447  UNL447      0.0330
   2679 H          12.4327   24.8032    6.4405 H     447  UNL447      0.0521
   2680 H          12.4388   25.9807    5.0908 H     447  UNL447      0.0521
   2681 H          12.2202   24.2421    4.7613 H     447  UNL447      0.0521
   2682 H          10.4437   25.9186    6.2159 H     447  UNL447      0.2090
   2683 O           9.6502   24.9632    9.1209 O.3   448  UNL448     -0.3982
   2684 C          10.9959   24.7452    8.7387 C.3   448  UNL448      0.0330
   2685 H          11.0564   23.8567    8.1052 H     448  UNL448      0.0521
   2686 H          11.6121   24.6121    9.6312 H     448  UNL448      0.0521
   2687 H          11.3515   25.6137    8.1793 H     448  UNL448      0.0521
   2688 H           9.3626   24.1766    9.6150 H     448  UNL448      0.2090
   2689 O           8.7938   22.9739   12.7915 O.3   449  UNL449     -0.3982
   2690 C           9.1414   24.3431   12.8861 C.3   449  UNL449      0.0330
   2691 H           9.0834   24.8039   11.8968 H     449  UNL449      0.0521
   2692 H          10.1547   24.4360   13.2842 H     449  UNL449      0.0521
   2693 H           8.4405   24.8419   13.5596 H     449  UNL449      0.0521
   2694 H           9.4327   22.5580   12.1879 H     449  UNL449      0.2090
   2695 O          11.7728   23.3855   16.8691 O.3   450  UNL450     -0.3982
   2696 C          11.3279   24.5535   16.2040 C.3   450  UNL450      0.0330
   2697 H          10.5993   24.2815   15.4362 H     450  UNL450      0.0521
   2698 H          12.1812   25.0615   15.7480 H     450  UNL450      0.0521
   2699 H          10.8566   25.2188   16.9311 H     450  UNL450      0.0521
   2700 H          12.1863   22.8150   16.1990 H     450  UNL450      0.2090
   2701 O           9.9273   25.5616   19.2607 O.3   451  UNL451     -0.3982
   2702 C           9.9563   24.1465   19.2249 C.3   451  UNL451      0.0330
   2703 H           9.5838   23.7979   18.2585 H     451  UNL451      0.0521
   2704 H           9.3364   23.7480   20.0317 H     451  UNL451      0.0521
   2705 H          10.9866   23.8088   19.3592 H     451  UNL451      0.0521
   2706 H           9.0011   25.8315   19.1391 H     451  UNL451      0.2090
   2707 O           9.7711   25.2193   23.8282 O.3   452  UNL452     -0.3982
   2708 C          10.0002   24.8299   22.4865 C.3   452  UNL452      0.0330
   2709 H           9.1574   24.2321   22.1306 H     452  UNL452      0.0521
   2710 H          10.9236   24.2487   22.4274 H     452  UNL452      0.0521
   2711 H          10.0958   25.7254   21.8680 H     452  UNL452      0.0521
   2712 H           9.6907   24.4043   24.3525 H     452  UNL452      0.2090
   2713 O          12.0735   24.1352   27.5938 O.3   453  UNL453     -0.3982
   2714 C          11.2824   24.2216   26.4227 C.3   453  UNL453      0.0330
   2715 H          10.2333   24.0517   26.6772 H     453  UNL453      0.0521
   2716 H          11.6184   23.4750   25.6991 H     453  UNL453      0.0521
   2717 H          11.3936   25.2193   25.9917 H     453  UNL453      0.0521
   2718 H          11.9545   23.2397   27.9534 H     453  UNL453      0.2090
   2719 O          10.8155   24.5686   29.9732 O.3   454  UNL454     -0.3982
   2720 C           9.4378   24.2424   29.9732 C.3   454  UNL454      0.0330
   2721 H           9.1942   23.6859   30.8817 H     454  UNL454      0.0521
   2722 H           9.2049   23.6410   29.0912 H     454  UNL454      0.0521
   2723 H           8.8542   25.1656   29.9465 H     454  UNL454      0.0521
   2724 H          11.3076   23.7303   29.9973 H     454  UNL454      0.2090
   2725 O          10.4140   23.5208   33.0410 O.3   455  UNL455     -0.3982
   2726 C          10.4330   24.9132   33.2966 C.3   455  UNL455      0.0330
   2727 H          11.2474   25.1468   33.9869 H     455  UNL455      0.0521
   2728 H           9.4766   25.2184   33.7280 H     455  UNL455      0.0521
   2729 H          10.5920   25.4451   32.3556 H     455  UNL455      0.0521
   2730 H          10.2714   23.0757   33.8936 H     455  UNL455      0.2090
   2731 O          10.4657   24.1282   36.2710 O.3   456  UNL456     -0.3982
   2732 C           9.0594   23.9640   36.2710 C.3   456  UNL456      0.0330
   2733 H           8.7759   23.2419   37.0407 H     456  UNL456      0.0521
   2734 H           8.7327   23.6131   35.2891 H     456  UNL456      0.0521
   2735 H           8.5893   24.9264   36.4865 H     456  UNL456      0.0521
   2736 H          10.8548   23.2584   36.0771 H     456  UNL456      0.2090
   2737 O           8.6356   27.4565   -1.5040 O.3   457  UNL457     -0.3982
   2738 C           8.7716   28.8629   -1.4149 C.3   457  UNL457      0.0330
   2739 H           9.5444   29.2000   -2.1103 H     457  UNL457      0.0521
   2740 H           9.0404   29.1398   -0.3926 H     457  UNL457      0.0521
   2741 H           7.8194   29.3294   -1.6780 H     457  UNL457      0.0521
   2742 H           9.4956   27.0706   -1.2652 H     457  UNL457      0.2090
   2743 O          10.1319   27.6855    1.9485 O.3   458  UNL458     -0.3982
   2744 C           8.7161   27.6855    1.9485 C.3   458  UNL458      0.0330
   2745 H           8.3508   28.6184    1.5120 H     458  UNL458      0.0521
   2746 H           8.3510   27.5826    2.9732 H     458  UNL458      0.0521
   2747 H           8.3608   26.8426    1.3511 H     458  UNL458      0.0521
   2748 H          10.4177   28.4438    2.4860 H     458  UNL458      0.2090
   2749 O          11.0289   28.1720    5.1271 O.3   459  UNL459     -0.3982
   2750 C           9.6524   28.4941    5.2033 C.3   459  UNL459      0.0330
   2751 H           9.0716   27.5813    5.3570 H     459  UNL459      0.0521
   2752 H           9.3406   28.9858    4.2786 H     459  UNL459      0.0521
   2753 H           9.4921   29.1715    6.0454 H     459  UNL459      0.0521
   2754 H          11.1401   27.5704    4.3713 H     459  UNL459      0.2090
   2755 O          11.5860   28.1012    8.9665 O.3   460  UNL460     -0.3982
   2756 C          10.2083   28.4274    8.9665 C.3   460  UNL460      0.0330
   2757 H           9.9774   29.0377    8.0899 H     460  UNL460      0.0521
   2758 H           9.9625   28.9747    9.8798 H     460  UNL460      0.0521
   2759 H           9.6247   27.5045    8.9293 H     460  UNL460      0.0521
   2760 H          12.0780   28.9392    9.0001 H     460  UNL460      0.2090
   2761 O          11.0826   27.9400   12.6202 O.3   461  UNL461     -0.3982
   2762 C           9.7940   27.4899   12.2440 C.3   461  UNL461      0.0330
   2763 H           9.2604   27.1303   13.1273 H     461  UNL461      0.0521
   2764 H           9.8879   26.6863   11.5096 H     461  UNL461      0.0521
   2765 H           9.2421   28.3224   11.8014 H     461  UNL461      0.0521
   2766 H          11.5483   27.1803   13.0094 H     461  UNL461      0.2090
   2767 O          10.1329   27.3268   15.5577 O.3   462  UNL462     -0.3982
   2768 C          10.3955   27.9666   16.7931 C.3   462  UNL462      0.0330
   2769 H          10.9422   28.8958   16.6143 H     462  UNL462      0.0521
   2770 H          10.9838   27.3022   17.4307 H     462  UNL462      0.0521
   2771 H           9.4465   28.1936   17.2845 H     462  UNL462      0.0521
   2772 H          10.9930   27.1379   15.1453 H     462  UNL462      0.2090
   2773 O          10.9495   29.1217   20.1855 O.3   463  UNL463     -0.3982
   2774 C           9.5432   29.2848   20.2042 C.3   463  UNL463      0.0330
   2775 H           9.1499   28.9534   21.1685 H     463  UNL463      0.0521
   2776 H           9.0970   28.7001   19.3962 H     463  UNL463      0.0521
   2777 H           9.3062   30.3415   20.0603 H     463  UNL463      0.0521
   2778 H          11.1291   28.1749   20.3154 H     463  UNL463      0.2090
   2779 O          11.8467   29.3506   23.3766 O.3   464  UNL464     -0.3982
   2780 C          11.1965   28.0941   23.3226 C.3   464  UNL464      0.0330
   2781 H          10.1138   28.2427   23.3253 H     464  UNL464      0.0521
   2782 H          11.4945   27.4914   24.1839 H     464  UNL464      0.0521
   2783 H          11.4895   27.5817   22.4032 H     464  UNL464      0.0521
   2784 H          11.5675   29.7815   24.2024 H     464  UNL464      0.2090
   2785 O          10.1886   28.9406   26.2995 O.3   465  UNL465     -0.3982
   2786 C          10.1417   27.5658   26.6344 C.3   465  UNL465      0.0330
   2787 H          10.0240   26.9720   25.7245 H     465  UNL465      0.0521
   2788 H           9.3042   27.3834   27.3122 H     465  UNL465      0.0521
   2789 H          11.0753   27.2886   27.1295 H     465  UNL465      0.0521
   2790 H           9.3475   29.1570   25.8622 H     465  UNL465      0.2090
   2791 O           9.2730   28.8737   29.4207 O.3   466  UNL466     -0.3982
   2792 C           9.6573   27.6547   30.0296 C.3   466  UNL466      0.0330
   2793 H          10.4932   27.8339   30.7104 H     466  UNL466      0.0521
   2794 H           9.9488   26.9373   29.2586 H     466  UNL466      0.0521
   2795 H           8.8102   27.2564   30.5931 H     466  UNL466      0.0521
   2796 H          10.0443   29.2027   28.9283 H     466  UNL466      0.2090
   2797 O           8.8755   28.2548   34.5252 O.3   467  UNL467     -0.3982
   2798 C           9.6847   28.2194   33.3640 C.3   467  UNL467      0.0330
   2799 H           9.3265   27.4347   32.6929 H     467  UNL467      0.0521
   2800 H          10.7220   28.0256   33.6475 H     467  UNL467      0.0521
   2801 H           9.6220   29.1855   32.8577 H     467  UNL467      0.0521
   2802 H           8.9512   27.3848   34.9529 H     467  UNL467      0.2090
   2803 O           9.1923   28.3524   37.3024 O.3   468  UNL468     -0.3982
   2804 C          10.5488   27.9472   37.3024 C.3   468  UNL468      0.0330
   2805 H          10.6730   27.0865   37.9643 H     468  UNL468      0.0521
   2806 H          11.1771   28.7745   37.6413 H     468  UNL468      0.0521
   2807 H          10.8360   27.6671   36.2862 H     468  UNL468      0.0521
   2808 H           8.9665   28.5947   38.2167 H     468  UNL468      0.2090
   2809 O          11.3600   32.5950   -1.1926 O.3   469  UNL469     -0.3982
   2810 C           9.9452   32.5427   -1.1804 C.3   469  UNL469      0.0330
   2811 H           9.6189   31.5054   -1.0718 H     469  UNL469      0.0521
   2812 H           9.5562   32.9627   -2.1112 H     469  UNL469      0.0521
   2813 H           9.5752   33.1291   -0.3361 H     469  UNL469      0.0521
   2814 H          11.6589   32.0663   -1.9520 H     469  UNL469      0.2090
   2815 O          10.7254   32.1894    1.8190 O.3   470  UNL470     -0.3982
   2816 C          10.3746   32.5168    3.1510 C.3   470  UNL470      0.0330
   2817 H          10.2058   31.5993    3.7203 H     470  UNL470      0.0521
   2818 H           9.4699   33.1295    3.1503 H     470  UNL470      0.0521
   2819 H          11.1930   33.0798    3.6058 H     470  UNL470      0.0521
   2820 H           9.9808   31.6907    1.4417 H     470  UNL470      0.2090
   2821 O          11.6772   32.8335    6.1175 O.3   471  UNL471     -0.3982
   2822 C          11.8516   31.4374    6.2752 C.3   471  UNL471      0.0330
   2823 H          12.8863   31.2282    6.5579 H     471  UNL471      0.0521
   2824 H          11.6093   30.9309    5.3378 H     471  UNL471      0.0521
   2825 H          11.1822   31.0824    7.0622 H     471  UNL471      0.0521
   2826 H          12.2836   33.1195    5.4131 H     471  UNL471      0.2090
   2827 O          10.7923   31.3928    9.6179 O.3   472  UNL472     -0.3982
   2828 C           9.7782   32.2641    9.1524 C.3   472  UNL472      0.0330
   2829 H           9.7063   33.1289    9.8166 H     472  UNL472      0.0521
   2830 H           8.8241   31.7322    9.1246 H     472  UNL472      0.0521
   2831 H          10.0342   32.6013    8.1452 H     472  UNL472      0.0521
   2832 H          10.5376   31.1103   10.5128 H     472  UNL472      0.2090
   2833 O          11.1967   30.6016   13.9797 O.3   473  UNL473     -0.3982
   2834 C          11.8122   31.3600   12.9549 C.3   473  UNL473      0.0330
   2835 H          11.1536   32.1817   12.6627 H     473  UNL473      0.0521
   2836 H          12.0131   30.7166   12.0948 H     473  UNL473      0.0521
   2837 H          12.7540   31.7668   13.3306 H     473  UNL473      0.0521
   2838 H          10.3642   30.2539   13.6171 H     473  UNL473      0.2090
   2839 O          10.1528   31.3928   16.6934 O.3   474  UNL474     -0.3982
   2840 C           9.3615   32.2641   15.9066 C.3   474  UNL474      0.0330
   2841 H           9.0649   33.1289   16.5053 H     474  UNL474      0.0521
   2842 H           8.4756   31.7322   15.5514 H     474  UNL474      0.0521
   2843 H           9.9493   32.6013   15.0496 H     474  UNL474      0.0521
   2844 H           9.6050   31.1103   17.4456 H     474  UNL474      0.2090
   2845 O          12.3704   31.6691   20.6194 O.3   475  UNL475     -0.3982
   2846 C          11.6422   32.2669   19.5626 C.3   475  UNL475      0.0330
   2847 H          10.9406   31.5401   19.1456 H     475  UNL475      0.0521
   2848 H          12.3345   32.6066   18.7885 H     475  UNL475      0.0521
   2849 H          11.0873   33.1230   19.9533 H     475  UNL475      0.0521
   2850 H          12.8522   30.9131   20.2426 H     475  UNL475      0.2090
   2851 O          10.3061   32.2007   22.5899 O.3   476  UNL476     -0.3982
   2852 C           9.2755   32.5137   23.5087 C.3   476  UNL476      0.0330
   2853 H           8.8705   31.5910   23.9317 H     476  UNL476      0.0521
   2854 H           8.4862   33.0695   22.9968 H     476  UNL476      0.0521
   2855 H           9.6895   33.1288   24.3111 H     476  UNL476      0.0521
   2856 H           9.9089   31.6549   21.8900 H     476  UNL476      0.2090
   2857 O          12.2644   31.1561   26.8961 O.3   477  UNL477     -0.3982
   2858 C          11.6723   31.8783   25.8320 C.3   477  UNL477      0.0330
   2859 H          11.4479   32.8959   26.1614 H     477  UNL477      0.0521
   2860 H          10.7551   31.3758   25.5154 H     477  UNL477      0.0521
   2861 H          12.3728   31.9149   24.9944 H     477  UNL477      0.0521
   2862 H          11.6200   31.1404   27.6242 H     477  UNL477      0.2090
   2863 O           9.8325   31.8598   29.4008 O.3   478  UNL478     -0.3982
   2864 C           9.6876   32.4475   30.6807 C.3   478  UNL478      0.0330
   2865 H          10.5927   33.0067   30.9304 H     478  UNL478      0.0521
   2866 H           9.5127   31.6658   31.4239 H     478  UNL478      0.0521
   2867 H           8.8338   33.1290   30.6641 H     478  UNL478      0.0521
   2868 H          10.5971   31.2607   29.4465 H     478  UNL478      0.2090
   2869 O          10.4398   31.4794   33.8280 O.3   479  UNL479     -0.3982
   2870 C           9.0997   31.7602   34.1881 C.3   479  UNL479      0.0330
   2871 H           8.5011   31.9033   33.2850 H     479  UNL479      0.0521
   2872 H           9.0685   32.6613   34.8053 H     479  UNL479      0.0521
   2873 H           8.7007   30.9174   34.7573 H     479  UNL479      0.0521
   2874 H          10.7667   32.2444   33.3246 H     479  UNL479      0.2090
   2875 O          11.4294   31.2409   38.0416 O.3   480  UNL480     -0.3982
   2876 C          11.5029   32.6250   37.7529 C.3   480  UNL480      0.0330
   2877 H          10.6220   33.1298   38.1573 H     480  UNL480      0.0521
   2878 H          11.5547   32.7702   36.6711 H     480  UNL480      0.0521
   2879 H          12.4017   33.0375   38.2171 H     480  UNL480      0.0521
   2880 H          10.6225   30.9029   37.6170 H     480  UNL480      0.2090
   2881 O          14.2244   -0.7680   -1.5008 O.3   481  UNL481     -0.3982
   2882 C          14.6640   -1.3515   -0.2881 C.3   481  UNL481      0.0330
   2883 H          15.5583   -1.9513   -0.4744 H     481  UNL481      0.0521
   2884 H          13.8703   -1.9796    0.1237 H     481  UNL481      0.0521
   2885 H          14.9025   -0.5568    0.4226 H     481  UNL481      0.0521
   2886 H          14.0204   -1.4970   -2.1112 H     481  UNL481      0.2090
   2887 O          13.8217   -1.8233    3.1066 O.3   482  UNL482     -0.3982
   2888 C          13.6170   -0.4224    3.1017 C.3   482  UNL482      0.0330
   2889 H          14.3410    0.0503    2.4334 H     482  UNL482      0.0521
   2890 H          13.7330   -0.0329    4.1160 H     482  UNL482      0.0521
   2891 H          12.6053   -0.2124    2.7467 H     482  UNL482      0.0521
   2892 H          14.7269   -1.9787    3.4259 H     482  UNL482      0.2090
   2893 O          13.8960   -1.1685    6.3577 O.3   483  UNL483     -0.3982
   2894 C          12.4898   -1.0043    6.3577 C.3   483  UNL483      0.0330
   2895 H          12.1332   -0.9085    7.3862 H     483  UNL483      0.0521
   2896 H          12.0214   -1.8667    5.8772 H     483  UNL483      0.0521
   2897 H          12.2378   -0.0986    5.8011 H     483  UNL483      0.0521
   2898 H          14.0890   -1.9794    6.8584 H     483  UNL483      0.2090
   2899 O          14.5141   -1.1049   10.3566 O.3   484  UNL484     -0.3982
   2900 C          13.2336   -1.2946    9.7832 C.3   484  UNL484      0.0330
   2901 H          12.5616   -1.7312   10.5262 H     484  UNL484      0.0521
   2902 H          13.3156   -1.9560    8.9172 H     484  UNL484      0.0521
   2903 H          12.8405   -0.3267    9.4636 H     484  UNL484      0.0521
   2904 H          14.8371   -1.9803   10.6303 H     484  UNL484      0.2090
   2905 O          13.0417   -1.7300   13.5221 O.3   485  UNL485     -0.3982
   2906 C          12.9331   -0.3961   13.0603 C.3   485  UNL485      0.0330
   2907 H          12.6690    0.2589   13.8943 H     485  UNL485      0.0521
   2908 H          12.1676   -0.3401   12.2826 H     485  UNL485      0.0521
   2909 H          13.8944   -0.0843   12.6453 H     485  UNL485      0.0521
   2910 H          12.1742   -1.9785   13.8844 H     485  UNL485      0.2090
   2911 O          14.8149   -1.6307   16.2891 O.3   486  UNL486     -0.3982
   2912 C          13.5153   -1.4510   16.8211 C.3   486  UNL486      0.0330
   2913 H          12.7765   -1.8575   16.1258 H     486  UNL486      0.0521
   2914 H          13.3312   -0.3862   16.9835 H     486  UNL486      0.0521
   2915 H          13.4452   -1.9802   17.7743 H     486  UNL486      0.0521
   2916 H          14.8468   -1.1503   15.4443 H     486  UNL486      0.2090
   2917 O          14.4480   -0.1110   19.7571 O.3   487  UNL487     -0.3982
   2918 C          13.0531    0.1314   19.7614 C.3   487  UNL487      0.0330
   2919 H          12.7170    0.3125   20.7853 H     487  UNL487      0.0521
   2920 H          12.5311   -0.7324   19.3426 H     487  UNL487      0.0521
   2921 H          12.8437    1.0124   19.1502 H     487  UNL487      0.0521
   2922 H          14.6030   -0.8978   20.3070 H     487  UNL487      0.2090
   2923 O          14.5912   -1.4579   23.1509 O.3   488  UNL488     -0.3982
   2924 C          13.2146   -1.4195   22.8221 C.3   488  UNL488      0.0330
   2925 H          13.0605   -1.8756   21.8410 H     488  UNL488      0.0521
   2926 H          12.8704   -0.3825   22.8118 H     488  UNL488      0.0521
   2927 H          12.6540   -1.9797   23.5740 H     488  UNL488      0.0521
   2928 H          15.0626   -0.9529   22.4665 H     488  UNL488      0.2090
   2929 O          15.1438   -1.6524   26.0956 O.3   489  UNL489     -0.3982
   2930 C          13.8584   -1.1762   26.4498 C.3   489  UNL489      0.0330
   2931 H          13.3237   -0.8636   25.5494 H     489  UNL489      0.0521
   2932 H          13.9581   -0.3335   27.1383 H     489  UNL489      0.0521
   2933 H          13.3040   -1.9803   26.9394 H     489  UNL489      0.0521
   2934 H          15.6117   -0.9176   25.6636 H     489  UNL489      0.2090
   2935 O          14.9963   -1.4125   29.6965 O.3   490  UNL490     -0.3982
   2936 C          13.5901   -1.4125   29.8607 C.3   490  UNL490      0.0330
   2937 H          13.1275   -1.9793   29.0488 H     490  UNL490      0.0521
   2938 H          13.2219   -0.3837   29.8569 H     490  UNL490      0.0521
   2939 H          13.3439   -1.8818   30.8161 H     490  UNL490      0.0521
   2940 H          15.1840   -0.9904   28.8409 H     490  UNL490      0.2090
   2941 O          13.8441   -1.7847   33.9269 O.3   491  UNL491     -0.3982
   2942 C          14.1183   -0.3986   34.0153 C.3   491  UNL491      0.0330
   2943 H          13.2470    0.1684   33.6780 H     491  UNL491      0.0521
   2944 H          14.9854   -0.1575   33.3955 H     491  UNL491      0.0521
   2945 H          14.3350   -0.1448   35.0556 H     491  UNL491      0.0521
   2946 H          13.6558   -1.9798   32.9931 H     491  UNL491      0.2090
   2947 O          14.5843   -1.0847   38.2162 O.3   492  UNL492     -0.3982
   2948 C          13.3206   -1.1413   37.5802 C.3   492  UNL492      0.0330
   2949 H          12.6754   -1.8452   38.1118 H     492  UNL492      0.0521
   2950 H          13.4479   -1.4594   36.5426 H     492  UNL492      0.0521
   2951 H          12.8674   -0.1475   37.6013 H     492  UNL492      0.0521
   2952 H          14.9618   -1.9801   38.1819 H     492  UNL492      0.2090
   2953 O          16.7309    2.4853   -2.1096 O.3   493  UNL493     -0.3982
   2954 C          15.4032    2.4908   -1.6181 C.3   493  UNL493      0.0330
   2955 H          14.9367    3.4546   -1.8368 H     493  UNL493      0.0521
   2956 H          15.4122    2.3146   -0.5398 H     493  UNL493      0.0521
   2957 H          14.8388    1.6953   -2.1103 H     493  UNL493      0.0521
   2958 H          17.2068    3.2011   -1.6550 H     493  UNL493      0.2090
   2959 O          13.9722    2.5019    1.6097 O.3   494  UNL494     -0.3982
   2960 C          14.7834    3.6394    1.8388 C.3   494  UNL494      0.0330
   2961 H          14.2912    4.3006    2.5564 H     494  UNL494      0.0521
   2962 H          14.9488    4.1660    0.8958 H     494  UNL494      0.0521
   2963 H          15.7440    3.3145    2.2455 H     494  UNL494      0.0521
   2964 H          13.1274    2.8214    1.2493 H     494  UNL494      0.2090
   2965 O          14.1126    2.2667    5.2739 O.3   495  UNL495     -0.3982
   2966 C          15.4420    2.2899    4.7875 C.3   495  UNL495      0.0330
   2967 H          15.7767    3.3255    4.6885 H     495  UNL495      0.0521
   2968 H          15.4851    1.7875    3.8181 H     495  UNL495      0.0521
   2969 H          16.0886    1.7664    5.4957 H     495  UNL495      0.0521
   2970 H          13.5627    2.7381    4.6251 H     495  UNL495      0.2090
   2971 O          17.1064    1.3632    8.2544 O.3   496  UNL496     -0.3982
   2972 C          15.7011    1.1910    8.2583 C.3   496  UNL496      0.0330
   2973 H          15.4591    0.1561    8.0039 H     496  UNL496      0.0521
   2974 H          15.2477    1.8713    7.5333 H     496  UNL496      0.0521
   2975 H          15.3181    1.4177    9.2561 H     496  UNL496      0.0521
   2976 H          17.4171    1.1552    7.3568 H     496  UNL496      0.2090
   2977 O          15.1643    2.6564   13.5404 O.3   497  UNL497     -0.3982
   2978 C          13.8073    2.8908   13.8691 C.3   497  UNL497      0.0330
   2979 H          13.6133    2.5452   14.8876 H     497  UNL497      0.0521
   2980 H          13.1637    2.3596   13.1638 H     497  UNL497      0.0521
   2981 H          13.6065    3.9628   13.8061 H     497  UNL497      0.0521
   2982 H          15.3125    1.6976   13.6050 H     497  UNL497      0.2090
   2983 O          15.5978    1.8874   16.4511 O.3   498  UNL498     -0.3982
   2984 C          15.6547    2.0714   17.8538 C.3   498  UNL498      0.0330
   2985 H          16.3879    1.3840   18.2829 H     498  UNL498      0.0521
   2986 H          14.6686    1.8860   18.2867 H     498  UNL498      0.0521
   2987 H          15.9555    3.1002   18.0652 H     498  UNL498      0.0521
   2988 H          15.3285    0.9662   16.2945 H     498  UNL498      0.2090
   2989 O          15.0129    4.3605   20.9394 O.3   499  UNL499     -0.3982
   2990 C          14.0646    3.4093   20.4918 C.3   499  UNL499      0.0330
   2991 H          14.5353    2.4248   20.4313 H     499  UNL499      0.0521
   2992 H          13.6861    3.7049   19.5103 H     499  UNL499      0.0521
   2993 H          13.2363    3.3715   21.2031 H     499  UNL499      0.0521
   2994 H          15.7354    4.3717   20.2887 H     499  UNL499      0.2090
   2995 O          16.2198    1.6233   23.8732 O.3   500  UNL500     -0.3982
   2996 C          14.8135    1.4591   23.8732 C.3   500  UNL500      0.0330
   2997 H          14.5301    0.7370   24.6429 H     500  UNL500      0.0521
   2998 H          14.4868    1.1081   22.8913 H     500  UNL500      0.0521
   2999 H          14.3435    2.4214   24.0886 H     500  UNL500      0.0521
   3000 H          16.6090    0.7535   23.6793 H     500  UNL500      0.2090
   3001 O          14.9576    3.0077   26.6992 O.3   501  UNL501     -0.3982
   3002 C          13.6169    2.6187   26.9356 C.3   501  UNL501      0.0330
   3003 H          13.5998    1.7534   27.6028 H     501  UNL501      0.0521
   3004 H          13.1361    2.3699   25.9864 H     501  UNL501      0.0521
   3005 H          13.0836    3.4487   27.4050 H     501  UNL501      0.0521
   3006 H          15.4052    2.2517   26.2826 H     501  UNL501      0.2090
   3007 O          16.6342    1.4023   30.4476 O.3   502  UNL502     -0.3982
   3008 C          15.2279    1.4023   30.6118 C.3   502  UNL502      0.0330
   3009 H          14.9446    0.6333   31.3348 H     502  UNL502      0.0521
   3010 H          14.7479    1.2076   29.6497 H     502  UNL502      0.0521
   3011 H          14.9134    2.3809   30.9820 H     502  UNL502      0.0521
   3012 H          16.8834    0.5219   30.1185 H     502  UNL502      0.2090
   3013 O          14.7957    3.0039   33.4379 O.3   503  UNL503     -0.3982
   3014 C          13.3897    2.9851   33.2727 C.3   503  UNL503      0.0330
   3015 H          12.9462    2.2942   33.9940 H     503  UNL503      0.0521
   3016 H          13.1458    2.6720   32.2546 H     503  UNL503      0.0521
   3017 H          12.9981    3.9902   33.4460 H     503  UNL503      0.0521
   3018 H          15.1142    2.0992   33.2780 H     503  UNL503      0.2090
   3019 O          13.4929    3.2217   37.9184 O.3   504  UNL504     -0.3982
   3020 C          13.8400    3.4601   36.5667 C.3   504  UNL504      0.0330
   3021 H          13.5977    2.5795   35.9666 H     504  UNL504      0.0521
   3022 H          14.9083    3.6789   36.4971 H     504  UNL504      0.0521
   3023 H          13.2701    4.3167   36.1993 H     504  UNL504      0.0521
   3024 H          14.0139    2.4567   38.2166 H     504  UNL504      0.2090
   3025 O          15.7751    6.5624   -1.1385 O.3   505  UNL505     -0.3982
   3026 C          14.3593    6.5624   -1.1385 C.3   505  UNL505      0.0330
   3027 H          13.9940    5.9016   -0.3484 H     505  UNL505      0.0521
   3028 H          13.9941    6.2221   -2.1105 H     505  UNL505      0.0521
   3029 H          14.0040    7.5788   -0.9537 H     505  UNL505      0.0521
   3030 H          16.0608    5.6479   -1.3048 H     505  UNL505      0.2090
   3031 O          14.8078    6.4841    4.0003 O.3   506  UNL506     -0.3982
   3032 C          13.4790    6.9725    4.0003 C.3   506  UNL506      0.0330
   3033 H          13.3226    7.6061    3.1237 H     506  UNL506      0.0521
   3034 H          13.3004    7.5453    4.9136 H     506  UNL506      0.0521
   3035 H          12.7893    6.1260    3.9630 H     506  UNL506      0.0521
   3036 H          15.3964    7.2574    4.0339 H     506  UNL506      0.2090
   3037 O          15.4091    5.7457    7.1903 O.3   507  UNL507     -0.3982
   3038 C          14.0029    5.7457    7.0261 C.3   507  UNL507      0.0330
   3039 H          13.5420    5.1582    7.8240 H     507  UNL507      0.0521
   3040 H          13.7489    5.3200    6.0523 H     507  UNL507      0.0521
   3041 H          13.6392    6.7746    7.0775 H     507  UNL507      0.0521
   3042 H          15.7026    4.8201    7.1401 H     507  UNL507      0.2090
   3043 O          14.5786    3.4039   10.7862 O.3   508  UNL508     -0.3982
   3044 C          15.4360    4.2650   10.0597 C.3   508  UNL508      0.0330
   3045 H          16.1770    4.6985   10.7359 H     508  UNL508      0.0521
   3046 H          14.8467    5.0572    9.5915 H     508  UNL508      0.0521
   3047 H          15.9464    3.6875    9.2853 H     508  UNL508      0.0521
   3048 H          14.1399    3.9441   11.4655 H     508  UNL508      0.2090
   3049 O          15.8924    6.6358   13.9907 O.3   509  UNL509     -0.3982
   3050 C          15.3612    6.5798   12.6795 C.3   509  UNL509      0.0330
   3051 H          16.1580    6.3347   11.9727 H     509  UNL509      0.0521
   3052 H          14.9170    7.5448   12.4238 H     509  UNL509      0.0521
   3053 H          14.5917    5.8052   12.6407 H     509  UNL509      0.0521
   3054 H          16.5720    7.3313   13.9941 H     509  UNL509      0.2090
   3055 O          15.1958    5.4396   16.5816 O.3   510  UNL510     -0.3982
   3056 C          13.7800    5.4396   16.5816 C.3   510  UNL510      0.0330
   3057 H          13.4147    4.8491   17.4255 H     510  UNL510      0.0521
   3058 H          13.4148    5.0171   15.6423 H     510  UNL510      0.0521
   3059 H          13.4247    6.4682   16.6784 H     510  UNL510      0.0521
   3060 H          15.4815    4.5142   16.4944 H     510  UNL510      0.2090
   3061 O          15.6730    7.0549   19.1119 O.3   511  UNL511     -0.3982
   3062 C          14.3441    7.1675   19.5872 C.3   511  UNL511      0.0330
   3063 H          14.2376    6.5963   20.5128 H     511  UNL511      0.0521
   3064 H          13.6525    6.7883   18.8310 H     511  UNL511      0.0521
   3065 H          14.1249    8.2196   19.7835 H     511  UNL511      0.0521
   3066 H          15.8383    6.1111   18.9466 H     511  UNL511      0.2090
   3067 O          15.3220    5.0480   23.8351 O.3   512  UNL512     -0.3982
   3068 C          13.9158    5.0289   23.9981 C.3   512  UNL512      0.0330
   3069 H          13.6469    4.2987   24.7654 H     512  UNL512      0.0521
   3070 H          13.4416    4.7676   23.0490 H     512  UNL512      0.0521
   3071 H          13.5807    6.0212   24.3092 H     512  UNL512      0.0521
   3072 H          15.5898    4.1549   23.5591 H     512  UNL512      0.2090
   3073 O          16.6684    7.1351   26.3084 O.3   513  UNL513     -0.3982
   3074 C          15.2531    7.0981   26.3172 C.3   513  UNL513      0.0330
   3075 H          14.8756    7.7467   27.1116 H     513  UNL513      0.0521
   3076 H          14.9157    6.0715   26.4791 H     513  UNL513      0.0521
   3077 H          14.8825    7.4533   25.3528 H     513  UNL513      0.0521
   3078 H          16.9680    6.8147   27.1762 H     513  UNL513      0.2090
   3079 O          15.3960    4.9065   30.0437 O.3   514  UNL514     -0.3982
   3080 C          13.9802    4.9065   30.0437 C.3   514  UNL514      0.0330
   3081 H          13.6149    4.1375   30.7289 H     514  UNL514      0.0521
   3082 H          13.6150    4.7118   29.0324 H     514  UNL514      0.0521
   3083 H          13.6249    5.8851   30.3749 H     514  UNL514      0.0521
   3084 H          15.6817    4.0261   29.7457 H     514  UNL514      0.2090
   3085 O          15.0854    6.3800   34.4810 O.3   515  UNL515     -0.3982
   3086 C          14.4179    6.5829   33.2490 C.3   515  UNL515      0.0330
   3087 H          15.0279    7.2199   32.6037 H     515  UNL515      0.0521
   3088 H          13.4486    7.0529   33.4319 H     515  UNL515      0.0521
   3089 H          14.2658    5.6158   32.7639 H     515  UNL515      0.0521
   3090 H          15.2062    7.2549   34.8879 H     515  UNL515      0.2090
   3091 O          15.2612    6.7074   37.4679 O.3   516  UNL516     -0.3982
   3092 C          13.8550    6.6884   37.6310 C.3   516  UNL516      0.0330
   3093 H          13.5607    5.7778   38.1587 H     516  UNL516      0.0521
   3094 H          13.3731    6.7262   36.6510 H     516  UNL516      0.0521
   3095 H          13.5534    7.5599   38.2167 H     516  UNL516      0.0521
   3096 H          15.4988    5.9229   36.9448 H     516  UNL516      0.2090
   3097 O          16.4156   10.9227   -1.2510 O.3   517  UNL517     -0.3982
   3098 C          16.0820    9.5467   -1.2510 C.3   517  UNL517      0.0330
   3099 H          16.5468    9.0582   -2.1110 H     517  UNL517      0.0521
   3100 H          14.9961    9.4342   -1.2974 H     517  UNL517      0.0521
   3101 H          16.4543    9.0909   -0.3306 H     517  UNL517      0.0521
   3102 H          16.0727   11.2998   -2.0790 H     517  UNL517      0.2090
   3103 O          14.8038   11.4566    2.1249 O.3   518  UNL518     -0.3982
   3104 C          14.3475   10.1485    1.8332 C.3   518  UNL518      0.0330
   3105 H          14.0497    9.6505    2.7593 H     518  UNL518      0.0521
   3106 H          15.1451    9.5842    1.3438 H     518  UNL518      0.0521
   3107 H          13.4865   10.2134    1.1639 H     518  UNL518      0.0521
   3108 H          15.5675   11.3668    2.7201 H     518  UNL518      0.2090
   3109 O          14.6948    9.4835    7.2034 O.3   519  UNL519     -0.3982
   3110 C          15.2923    9.9878    6.0230 C.3   519  UNL519      0.0330
   3111 H          14.8548    9.4933    5.1522 H     519  UNL519      0.0521
   3112 H          16.3698    9.8087    6.0539 H     519  UNL519      0.0521
   3113 H          15.1054   11.0624    5.9613 H     519  UNL519      0.0521
   3114 H          14.8774    8.5288    7.2306 H     519  UNL519      0.2090
   3115 O          15.4399    8.2016    9.8686 O.3   520  UNL520     -0.3982
   3116 C          14.0241    8.2016    9.8686 C.3   520  UNL520      0.0330
   3117 H          13.6588    9.2278    9.9562 H     520  UNL520      0.0521
   3118 H          13.6589    7.6009   10.7052 H     520  UNL520      0.0521
   3119 H          13.6688    7.7695    8.9302 H     520  UNL520      0.0521
   3120 H          15.7256    8.5903   10.7129 H     520  UNL520      0.2090
   3121 O          15.1258   11.3868   13.1136 O.3   521  UNL521     -0.3982
   3122 C          14.6263   10.0621   13.1015 C.3   521  UNL521      0.0330
   3123 H          15.3525    9.3935   13.5704 H     521  UNL521      0.0521
   3124 H          14.4413    9.7510   12.0705 H     521  UNL521      0.0521
   3125 H          13.6896   10.0304   13.6630 H     521  UNL521      0.0521
   3126 H          15.9565   11.3835   12.6082 H     521  UNL521      0.2090
   3127 O          14.2624    9.4500   16.2292 O.3   522  UNL522     -0.3982
   3128 C          14.0702   10.8524   16.2029 C.3   522  UNL522      0.0330
   3129 H          14.9595   11.3353   15.7901 H     522  UNL522      0.0521
   3130 H          13.8833   11.2145   17.2167 H     522  UNL522      0.0521
   3131 H          13.2081   11.0811   15.5720 H     522  UNL522      0.0521
   3132 H          15.0334    9.2779   16.7962 H     522  UNL522      0.2090
   3133 O          16.8861   11.3919   19.9682 O.3   523  UNL523     -0.3982
   3134 C          15.7476   10.9193   19.2717 C.3   523  UNL523      0.0330
   3135 H          14.9191   11.6187   19.4089 H     523  UNL523      0.0521
   3136 H          15.4717    9.9321   19.6501 H     523  UNL523      0.0521
   3137 H          15.9870   10.8456   18.2082 H     523  UNL523      0.0521
   3138 H          16.6434   11.4468   20.9082 H     523  UNL523      0.2090
   3139 O          15.1976    8.2186   22.7976 O.3   524  UNL524     -0.3982
   3140 C          13.7818    8.2186   22.7976 C.3   524  UNL524      0.0330
   3141 H          13.4165    9.1379   22.3331 H     524  UNL524      0.0521
   3142 H          13.4166    8.1468   23.8250 H     524  UNL524      0.0521
   3143 H          13.4265    7.3580   22.2260 H     524  UNL524      0.0521
   3144 H          15.4833    8.9928   23.3119 H     524  UNL524      0.2090
   3145 O          14.6779   10.2357   26.3116 O.3   525  UNL525     -0.3982
   3146 C          13.3095    9.9583   26.5460 C.3   525  UNL525      0.0330
   3147 H          13.1907    8.9053   26.8130 H     525  UNL525      0.0521
   3148 H          12.7317   10.1846   25.6466 H     525  UNL525      0.0521
   3149 H          12.9564   10.5829   27.3699 H     525  UNL525      0.0521
   3150 H          14.9627    9.6672   25.5760 H     525  UNL525      0.2090
   3151 O          13.6304    8.8962   30.8083 O.3   526  UNL526     -0.3982
   3152 C          14.2261    8.9346   29.5245 C.3   526  UNL526      0.0330
   3153 H          13.6330    8.3361   28.8285 H     526  UNL526      0.0521
   3154 H          15.2444    8.5426   29.5825 H     526  UNL526      0.0521
   3155 H          14.2559    9.9701   29.1774 H     526  UNL526      0.0521
   3156 H          13.6180    7.9655   31.0898 H     526  UNL526      0.2090
   3157 O          15.7826   11.1866   32.8539 O.3   527  UNL527     -0.3982
   3158 C          15.3162   10.2919   33.8470 C.3   527  UNL527      0.0330
   3159 H          14.7739    9.4701   33.3728 H     527  UNL527      0.0521
   3160 H          14.6594   10.8246   34.5391 H     527  UNL527      0.0521
   3161 H          16.1723    9.8921   34.3955 H     527  UNL527      0.0521
   3162 H          15.0012   11.5249   32.3843 H     527  UNL527      0.2090
   3163 O          14.3905   10.1963   38.2164 O.3   528  UNL528     -0.3982
   3164 C          13.3117   10.1963   37.2996 C.3   528  UNL528      0.0330
   3165 H          12.5896    9.4273   37.5851 H     528  UNL528      0.0521
   3166 H          13.6883   10.0016   36.2925 H     528  UNL528      0.0521
   3167 H          12.8264   11.1749   37.3218 H     528  UNL528      0.0521
   3168 H          14.8011    9.3159   38.1744 H     528  UNL528      0.2090
   3169 O          13.9789   13.2857   -1.8707 O.3   529  UNL529     -0.3982
   3170 C          14.1823   13.3095   -0.4698 C.3   529  UNL529      0.0330
   3171 H          14.9974   12.6304   -0.2074 H     529  UNL529      0.0521
   3172 H          13.2634   13.0062    0.0378 H     529  UNL529      0.0521
   3173 H          14.4453   14.3254   -0.1661 H     529  UNL529      0.0521
   3174 H          13.7471   12.3723   -2.1103 H     529  UNL529      0.2090
   3175 O          15.4130   14.1111    3.9180 O.3   530  UNL530     -0.3982
   3176 C          14.0374   13.8543    3.7033 C.3   530  UNL530      0.0330
   3177 H          13.7783   12.8784    4.1212 H     530  UNL530      0.0521
   3178 H          13.8256   13.8715    2.6314 H     530  UNL530      0.0521
   3179 H          13.4494   14.6291    4.2009 H     530  UNL530      0.0521
   3180 H          15.9090   13.4079    3.4650 H     530  UNL530      0.2090
   3181 O          13.5832   14.4512    7.9444 O.3   531  UNL531     -0.3982
   3182 C          14.8076   14.1219    7.3143 C.3   531  UNL531      0.0330
   3183 H          14.6113   13.7548    6.3039 H     531  UNL531      0.0521
   3184 H          15.3241   13.3560    7.8978 H     531  UNL531      0.0521
   3185 H          15.4311   15.0174    7.2596 H     531  UNL531      0.0521
   3186 H          13.0516   13.6377    7.9786 H     531  UNL531      0.2090
   3187 O          15.4674   11.8311    9.8715 O.3   532  UNL532     -0.3982
   3188 C          14.0516   11.8311    9.8715 C.3   532  UNL532      0.0330
   3189 H          13.6863   12.8608    9.8966 H     532  UNL532      0.0521
   3190 H          13.6864   11.2823   10.7429 H     532  UNL532      0.0521
   3191 H          13.6963   11.3429    8.9610 H     532  UNL532      0.0521
   3192 H          15.7531   12.2703   10.6906 H     532  UNL532      0.2090
   3193 O          13.2870   14.1483   13.7779 O.3   533  UNL533     -0.3982
   3194 C          13.6514   14.0878   12.4112 C.3   533  UNL533      0.0330
   3195 H          12.9995   13.3822   11.8902 H     533  UNL533      0.0521
   3196 H          14.6933   13.7698   12.3248 H     533  UNL533      0.0521
   3197 H          13.5379   15.0803   11.9689 H     533  UNL533      0.0521
   3198 H          13.3979   13.2539   14.1431 H     533  UNL533      0.2090
   3199 O          16.4484   13.5906   16.8344 O.3   534  UNL534     -0.3982
   3200 C          15.8837   14.2271   15.7028 C.3   534  UNL534      0.0330
   3201 H          14.9036   14.6342   15.9638 H     534  UNL534      0.0521
   3202 H          15.7851   13.5049   14.8888 H     534  UNL534      0.0521
   3203 H          16.5414   15.0405   15.3876 H     534  UNL534      0.0521
   3204 H          15.8431   12.8740   17.0908 H     534  UNL534      0.2090
   3205 O          14.2880   13.9573   18.9413 O.3   535  UNL535     -0.3982
   3206 C          14.2583   14.1599   20.3422 C.3   535  UNL535      0.0330
   3207 H          14.4853   13.2204   20.8521 H     535  UNL535      0.0521
   3208 H          13.2694   14.5180   20.6386 H     535  UNL535      0.0521
   3209 H          15.0091   14.9074   20.6091 H     535  UNL535      0.0521
   3210 H          13.6118   13.2898   18.7348 H     535  UNL535      0.2090
   3211 O          15.5252   11.8484   23.2417 O.3   536  UNL536     -0.3982
   3212 C          14.1094   11.8484   23.2417 C.3   536  UNL536      0.0330
   3213 H          13.7441   12.8779   23.2097 H     536  UNL536      0.0521
   3214 H          13.7442   11.3487   24.1422 H     536  UNL536      0.0521
   3215 H          13.7541   11.3104   22.3597 H     536  UNL536      0.0521
   3216 H          15.8109   12.3324   24.0352 H     536  UNL536      0.2090
   3217 O          14.8418   13.8806   26.6270 O.3   537  UNL537     -0.3982
   3218 C          13.5027   13.4260   26.6939 C.3   537  UNL537      0.0330
   3219 H          13.4014   12.7066   27.5103 H     537  UNL537      0.0521
   3220 H          13.2282   12.9578   25.7454 H     537  UNL537      0.0521
   3221 H          12.8466   14.2795   26.8797 H     537  UNL537      0.0521
   3222 H          15.4000   13.1017   26.4614 H     537  UNL537      0.2090
   3223 O          15.0398   12.4223   29.3389 O.3   538  UNL538     -0.3982
   3224 C          15.4575   13.4251   30.2468 C.3   538  UNL538      0.0330
   3225 H          16.0872   14.1504   29.7255 H     538  UNL538      0.0521
   3226 H          16.0145   12.9660   31.0671 H     538  UNL538      0.0521
   3227 H          14.5761   13.9319   30.6466 H     538  UNL538      0.0521
   3228 H          15.8428   11.9903   29.0010 H     538  UNL538      0.2090
   3229 O          14.8719   14.5591   33.1932 O.3   539  UNL539     -0.3982
   3230 C          13.7082   13.7607   33.3055 C.3   539  UNL539      0.0330
   3231 H          12.9501   14.2986   33.8803 H     539  UNL539      0.0521
   3232 H          13.9574   12.8197   33.8019 H     539  UNL539      0.0521
   3233 H          13.3230   13.5513   32.3048 H     539  UNL539      0.0521
   3234 H          15.1906   14.7283   34.0962 H     539  UNL539      0.2090
   3235 O          13.4629   13.6569   37.8974 O.3   540  UNL540     -0.3982
   3236 C          13.5947   13.7155   36.4889 C.3   540  UNL540      0.0330
   3237 H          14.4979   14.2734   36.2295 H     540  UNL540      0.0521
   3238 H          12.7162   14.2035   36.0599 H     540  UNL540      0.0521
   3239 H          13.6718   12.6987   36.0967 H     540  UNL540      0.0521
   3240 H          13.3966   14.5730   38.2165 H     540  UNL540      0.2090
   3241 O          14.0979   16.4548   -1.2701 O.3   541  UNL541     -0.3982
   3242 C          14.4089   17.8289   -1.1302 C.3   541  UNL541      0.0330
   3243 H          13.4851   18.4126   -1.1139 H     541  UNL541      0.0521
   3244 H          15.0391   18.1475   -1.9640 H     541  UNL541      0.0521
   3245 H          14.9478   17.9774   -0.1915 H     541  UNL541      0.0521
   3246 H          13.6206   16.3541   -2.1113 H     541  UNL541      0.2090
   3247 O          14.1745   18.2577    2.4544 O.3   542  UNL542     -0.3982
   3248 C          14.0370   16.8542    2.3290 C.3   542  UNL542      0.0330
   3249 H          14.7595   16.3567    2.9807 H     542  UNL542      0.0521
   3250 H          14.2062   16.5621    1.2897 H     542  UNL542      0.0521
   3251 H          13.0250   16.5684    2.6253 H     542  UNL542      0.0521
   3252 H          15.0816   18.4812    2.1847 H     542  UNL542      0.2090
   3253 O          13.8488   18.0433    5.4130 O.3   543  UNL543     -0.3982
   3254 C          13.3911   17.1402    6.4027 C.3   543  UNL543      0.0330
   3255 H          14.2328   16.8183    7.0209 H     543  UNL543      0.0521
   3256 H          12.9270   16.2757    5.9216 H     543  UNL543      0.0521
   3257 H          12.6529   17.6450    7.0302 H     543  UNL543      0.0521
   3258 H          14.5019   17.5674    4.8721 H     543  UNL543      0.2090
   3259 O          16.6844   16.2305   10.1053 O.3   544  UNL544     -0.3982
   3260 C          15.2826   16.0432   10.0400 C.3   544  UNL544      0.0330
   3261 H          14.8992   16.4751    9.1122 H     544  UNL544      0.0521
   3262 H          14.8096   16.5228   10.9004 H     544  UNL544      0.0521
   3263 H          15.0660   14.9725   10.0577 H     544  UNL544      0.0521
   3264 H          16.8457   17.1893   10.0878 H     544  UNL544      0.2090
   3265 O          15.2280   17.5900   13.4543 O.3   545  UNL545     -0.3982
   3266 C          13.8312   17.4127   13.6024 C.3   545  UNL545      0.0330
   3267 H          13.6364   16.7111   14.4173 H     545  UNL545      0.0521
   3268 H          13.4107   17.0297   12.6693 H     545  UNL545      0.0521
   3269 H          13.3736   18.3766   13.8371 H     545  UNL545      0.0521
   3270 H          15.6062   16.7186   13.2466 H     545  UNL545      0.2090
   3271 O          16.1747   17.3274   17.0662 O.3   546  UNL546     -0.3982
   3272 C          14.8016   17.5887   16.8407 C.3   546  UNL546      0.0330
   3273 H          14.3181   16.6899   16.4498 H     546  UNL546      0.0521
   3274 H          14.6985   18.4102   16.1276 H     546  UNL546      0.0521
   3275 H          14.3332   17.8695   17.7869 H     546  UNL546      0.0521
   3276 H          16.5631   17.0811   16.2095 H     546  UNL546      0.2090
   3277 O          14.4680   17.4212   20.7566 O.3   547  UNL547     -0.3982
   3278 C          13.2004   17.2727   20.1436 C.3   547  UNL547      0.0330
   3279 H          12.8776   18.2334   19.7348 H     547  UNL547      0.0521
   3280 H          12.4773   16.9173   20.8817 H     547  UNL547      0.0521
   3281 H          13.2803   16.5431   19.3344 H     547  UNL547      0.0521
   3282 H          14.3657   18.0740   21.4700 H     547  UNL547      0.2090
   3283 O          16.4174   16.1348   24.2925 O.3   548  UNL548     -0.3982
   3284 C          16.0401   15.0175   23.5090 C.3   548  UNL548      0.0330
   3285 H          15.9509   15.3189   22.4623 H     548  UNL548      0.0521
   3286 H          15.0861   14.6246   23.8687 H     548  UNL548      0.0521
   3287 H          16.8072   14.2449   23.5993 H     548  UNL548      0.0521
   3288 H          15.7182   16.8031   24.1925 H     548  UNL548      0.2090
   3289 O          15.1850   18.2964   26.3862 O.3   549  UNL549     -0.3982
   3290 C          13.9461   17.6534   26.1492 C.3   549  UNL549      0.0330
   3291 H          14.1072   16.7658   25.5323 H     549  UNL549      0.0521
   3292 H          13.2673   18.3439   25.6426 H     549  UNL549      0.0521
   3293 H          13.5116   17.3554   27.1063 H     549  UNL549      0.0521
   3294 H          15.5461   18.5491   25.5194 H     549  UNL549      0.2090
   3295 O          15.9606   16.9554   29.0412 O.3   550  UNL550     -0.3982
   3296 C          14.7590   17.4381   29.6136 C.3   550  UNL550      0.0330
   3297 H          14.9817   17.9496   30.5533 H     550  UNL550      0.0521
   3298 H          14.0787   16.6022   29.7937 H     550  UNL550      0.0521
   3299 H          14.2926   18.1416   28.9199 H     550  UNL550      0.0521
   3300 H          16.3514   16.3340   29.6790 H     550  UNL550      0.2090
   3301 O          12.8646   17.1220   34.2556 O.3   551  UNL551     -0.3982
   3302 C          13.3674   17.2596   32.9392 C.3   551  UNL551      0.0330
   3303 H          13.0542   16.4030   32.3371 H     551  UNL551      0.0521
   3304 H          14.4581   17.3182   32.9691 H     551  UNL551      0.0521
   3305 H          12.9674   18.1766   32.5002 H     551  UNL551      0.0521
   3306 H          13.2365   16.3003   34.6190 H     551  UNL551      0.2090
   3307 O          14.8724   18.2603   37.3059 O.3   552  UNL552     -0.3982
   3308 C          15.0717   16.8634   37.4215 C.3   552  UNL552      0.0330
   3309 H          14.9721   16.3976   36.4380 H     552  UNL552      0.0521
   3310 H          14.3343   16.4452   38.1109 H     552  UNL552      0.0521
   3311 H          16.0760   16.6787   37.8098 H     552  UNL552      0.0521
   3312 H          13.9736   18.3930   36.9594 H     552  UNL552      0.2090
   3313 O          14.4687   21.2439   -1.7864 O.3   553  UNL553     -0.3982
   3314 C          14.5926   21.0960   -0.3838 C.3   553  UNL553      0.0330
   3315 H          15.1209   20.1660   -0.1597 H     553  UNL553      0.0521
   3316 H          13.5991   21.0818    0.0711 H     553  UNL553      0.0521
   3317 H          15.1608   21.9402    0.0137 H     553  UNL553      0.0521
   3318 H          13.9604   20.4808   -2.1103 H     553  UNL553      0.2090
   3319 O          15.2387   21.8186    2.9802 O.3   554  UNL554     -0.3982
   3320 C          13.9048   21.3651    3.1200 C.3   554  UNL554      0.0330
   3321 H          13.3439   22.0665    3.7427 H     554  UNL554      0.0521
   3322 H          13.9025   20.3728    3.5774 H     554  UNL554      0.0521
   3323 H          13.4430   21.3093    2.1314 H     554  UNL554      0.0521
   3324 H          15.6222   21.8579    3.8729 H     554  UNL554      0.2090
   3325 O          15.0949   21.1659    6.1559 O.3   555  UNL555     -0.3982
   3326 C          13.9614   21.8636    6.6384 C.3   555  UNL555      0.0330
   3327 H          13.2939   21.1662    7.1505 H     555  UNL555      0.0521
   3328 H          13.4402   22.3361    5.8022 H     555  UNL555      0.0521
   3329 H          14.2902   22.6327    7.3413 H     555  UNL555      0.0521
   3330 H          14.7720   20.4908    5.5350 H     555  UNL555      0.2090
   3331 O          14.0671   19.3450   10.5509 O.3   556  UNL556     -0.3982
   3332 C          14.2344   19.0238    9.1822 C.3   556  UNL556      0.0330
   3333 H          13.4753   18.2972    8.8821 H     556  UNL556      0.0521
   3334 H          15.2332   18.6100    9.0236 H     556  UNL556      0.0521
   3335 H          14.1205   19.9331    8.5873 H     556  UNL556      0.0521
   3336 H          14.1736   18.5193   11.0532 H     556  UNL556      0.2090
   3337 O          16.5130   20.3393   13.4566 O.3   557  UNL557     -0.3982
   3338 C          15.2937   20.7646   12.8760 C.3   557  UNL557      0.0330
   3339 H          15.4459   20.9652   11.8125 H     557  UNL557      0.0521
   3340 H          14.9439   21.6679   13.3816 H     557  UNL557      0.0521
   3341 H          14.5496   19.9732   12.9925 H     557  UNL557      0.0521
   3342 H          17.1531   21.0616   13.3379 H     557  UNL557      0.2090
   3343 O          14.6352   21.4731   16.1893 O.3   558  UNL558     -0.3982
   3344 C          13.5629   20.6828   15.7098 C.3   558  UNL558      0.0330
   3345 H          13.9562   19.8600   15.1078 H     558  UNL558      0.0521
   3346 H          12.8938   21.3019   15.1073 H     558  UNL558      0.0521
   3347 H          13.0119   20.2772   16.5616 H     558  UNL558      0.0521
   3348 H          15.1052   21.8191   15.4115 H     558  UNL558      0.2090
   3349 O          16.3063   21.2190   19.3445 O.3   559  UNL559     -0.3982
   3350 C          15.3563   20.1736   19.2494 C.3   559  UNL559      0.0330
   3351 H          14.3788   20.5903   18.9940 H     559  UNL559      0.0521
   3352 H          15.3002   19.6433   20.2032 H     559  UNL559      0.0521
   3353 H          15.6696   19.4788   18.4667 H     559  UNL559      0.0521
   3354 H          16.0016   21.8190   20.0465 H     559  UNL559      0.2090
   3355 O          14.8396   21.8191   23.0079 O.3   560  UNL560     -0.3982
   3356 C          14.8383   20.4035   23.0298 C.3   560  UNL560      0.0330
   3357 H          15.7529   20.0301   22.5625 H     560  UNL560      0.0521
   3358 H          13.9632   20.0307   22.4919 H     560  UNL560      0.0521
   3359 H          14.7972   20.0642   24.0674 H     560  UNL560      0.0521
   3360 H          14.8765   22.0904   22.0749 H     560  UNL560      0.2090
   3361 O          14.2479   20.7660   26.4985 O.3   561  UNL561     -0.3982
   3362 C          13.1048   21.2661   25.8294 C.3   561  UNL561      0.0330
   3363 H          12.4804   21.8184   26.5361 H     561  UNL561      0.0521
   3364 H          12.5402   20.4349   25.4001 H     561  UNL561      0.0521
   3365 H          13.4265   21.9369   25.0294 H     561  UNL561      0.0521
   3366 H          13.9311   20.1745   27.2022 H     561  UNL561      0.2090
   3367 O          14.4230   21.0471   29.4612 O.3   562  UNL562     -0.3982
   3368 C          13.2338   20.4459   29.9395 C.3   562  UNL562      0.0330
   3369 H          12.7048   19.9715   29.1093 H     562  UNL562      0.0521
   3370 H          12.6004   21.2069   30.4019 H     562  UNL562      0.0521
   3371 H          13.4927   19.6892   30.6838 H     562  UNL562      0.0521
   3372 H          14.1616   21.7135   28.8031 H     562  UNL562      0.2090
   3373 O          15.1870   21.6830   32.3344 O.3   563  UNL563     -0.3982
   3374 C          15.5740   21.0074   33.5168 C.3   563  UNL563      0.0330
   3375 H          15.0838   20.0315   33.5571 H     563  UNL563      0.0521
   3376 H          15.2926   21.6046   34.3875 H     563  UNL563      0.0521
   3377 H          16.6576   20.8682   33.5080 H     563  UNL563      0.0521
   3378 H          14.2214   21.7920   32.3707 H     563  UNL563      0.2090
   3379 O          14.1760   21.2142   37.0082 O.3   564  UNL564     -0.3982
   3380 C          12.9287   20.7257   37.4666 C.3   564  UNL564      0.0330
   3381 H          12.3512   21.5469   37.8984 H     564  UNL564      0.0521
   3382 H          13.0942   19.9487   38.2168 H     564  UNL564      0.0521
   3383 H          12.3805   20.3025   36.6216 H     564  UNL564      0.0521
   3384 H          14.6392   21.5832   37.7794 H     564  UNL564      0.2090
   3385 O          13.7113   23.9545   -1.4032 O.3   565  UNL565     -0.3982
   3386 C          13.7377   25.3506   -1.1698 C.3   565  UNL565      0.0330
   3387 H          12.7824   25.6680   -0.7444 H     565  UNL565      0.0521
   3388 H          13.9218   25.8748   -2.1108 H     565  UNL565      0.0521
   3389 H          14.5413   25.5780   -0.4654 H     565  UNL565      0.0521
   3390 H          12.9890   23.7834   -2.0314 H     565  UNL565      0.2090
   3391 O          14.7754   24.5529    1.8373 O.3   566  UNL566     -0.3982
   3392 C          13.3596   24.5529    1.8373 C.3   566  UNL566      0.0330
   3393 H          12.9943   25.5419    1.5498 H     566  UNL566      0.0521
   3394 H          12.9944   24.2933    2.8339 H     566  UNL566      0.0521
   3395 H          13.0043   23.8121    1.1171 H     566  UNL566      0.0521
   3396 H          15.0611   25.2193    2.4852 H     566  UNL566      0.2090
   3397 O          15.0211   25.1827    6.2820 O.3   567  UNL567     -0.3982
   3398 C          15.3536   24.5375    5.0664 C.3   567  UNL567      0.0330
   3399 H          15.7490   23.5409    5.2780 H     567  UNL567      0.0521
   3400 H          16.0986   25.1304    4.5301 H     567  UNL567      0.0521
   3401 H          14.4533   24.4475    4.4540 H     567  UNL567      0.0521
   3402 H          15.8390   25.2483    6.8037 H     567  UNL567      0.2090
   3403 O          15.3278   22.5594    9.8645 O.3   568  UNL568     -0.3982
   3404 C          13.9215   22.5215   10.0242 C.3   568  UNL568      0.0330
   3405 H          13.4910   21.8200    9.3054 H     568  UNL568      0.0521
   3406 H          13.5090   23.5210    9.8661 H     568  UNL568      0.0521
   3407 H          13.6880   22.1897   11.0386 H     568  UNL568      0.0521
   3408 H          15.5042   22.8571    8.9557 H     568  UNL568      0.2090
   3409 O          14.3164   24.2407   12.7740 O.3   569  UNL569     -0.3982
   3410 C          12.9006   24.2407   12.7740 C.3   569  UNL569      0.0330
   3411 H          12.5353   23.4717   13.4592 H     569  UNL569      0.0521
   3412 H          12.5354   24.0460   11.7627 H     569  UNL569      0.0521
   3413 H          12.5453   25.2193   13.1052 H     569  UNL569      0.0521
   3414 H          14.6021   23.3603   12.4760 H     569  UNL569      0.2090
   3415 O          16.0416   24.2013   15.7466 O.3   570  UNL570     -0.3982
   3416 C          14.8632   24.6056   16.4192 C.3   570  UNL570      0.0330
   3417 H          14.2124   23.7404   16.5681 H     570  UNL570      0.0521
   3418 H          14.3472   25.3655   15.8273 H     570  UNL570      0.0521
   3419 H          15.1349   25.0259   17.3904 H     570  UNL570      0.0521
   3420 H          15.7689   23.8330   14.8890 H     570  UNL570      0.2090
   3421 O          13.5780   23.4700   19.4803 O.3   571  UNL571     -0.3982
   3422 C          13.6067   24.8823   19.5747 C.3   571  UNL571      0.0330
   3423 H          13.1824   25.3179   18.6667 H     571  UNL571      0.0521
   3424 H          14.6381   25.2187   19.7055 H     571  UNL571      0.0521
   3425 H          13.0124   25.1929   20.4373 H     571  UNL571      0.0521
   3426 H          14.1134   23.2245   18.7066 H     571  UNL571      0.2090
   3427 O          13.3303   23.9691   23.0460 O.3   572  UNL572     -0.3982
   3428 C          13.5094   25.2660   23.5849 C.3   572  UNL572      0.0330
   3429 H          12.9717   25.9937   22.9720 H     572  UNL572      0.0521
   3430 H          14.5746   25.5085   23.6068 H     572  UNL572      0.0521
   3431 H          13.1125   25.2859   24.6026 H     572  UNL572      0.0521
   3432 H          13.6918   23.9824   22.1434 H     572  UNL572      0.2090
   3433 O          15.9786   23.3146   27.1900 O.3   573  UNL573     -0.3982
   3434 C          15.2018   24.4694   26.9300 C.3   573  UNL573      0.0330
   3435 H          14.3503   24.2024   26.2993 H     573  UNL573      0.0521
   3436 H          15.8188   25.2194   26.4293 H     573  UNL573      0.0521
   3437 H          14.8381   24.8737   27.8776 H     573  UNL573      0.0521
   3438 H          16.2873   22.9786   26.3313 H     573  UNL573      0.2090
   3439 O          13.6361   24.2434   31.0607 O.3   574  UNL574     -0.3982
   3440 C          14.9233   24.2408   30.4711 C.3   574  UNL574      0.0330
   3441 H          15.6734   24.0125   31.2325 H     574  UNL574      0.0521
   3442 H          15.1242   25.2194   30.0284 H     574  UNL574      0.0521
   3443 H          14.9552   23.4768   29.6908 H     574  UNL574      0.0521
   3444 H          13.6384   24.9307   31.7486 H     574  UNL574      0.2090
   3445 O          14.9753   24.2486   33.7467 O.3   575  UNL575     -0.3982
   3446 C          16.2808   24.7650   33.9297 C.3   575  UNL575      0.0330
   3447 H          16.3586   25.2185   34.9210 H     575  UNL575      0.0521
   3448 H          16.4899   25.5106   33.1588 H     575  UNL575      0.0521
   3449 H          17.0009   23.9476   33.8478 H     575  UNL575      0.0521
   3450 H          14.3587   24.9964   33.8248 H     575  UNL575      0.2090
   3451 O          13.2606   24.1514   37.8906 O.3   576  UNL576     -0.3982
   3452 C          13.4596   24.1993   36.4897 C.3   576  UNL576      0.0330
   3453 H          13.0316   23.3054   36.0291 H     576  UNL576      0.0521
   3454 H          14.5295   24.2563   36.2746 H     576  UNL576      0.0521
   3455 H          12.9622   25.0861   36.0902 H     576  UNL576      0.0521
   3456 H          13.7129   23.3547   38.2164 H     576  UNL576      0.2090
   3457 O          14.0837   28.6199   -0.5374 O.3   577  UNL577     -0.3982
   3458 C          12.7528   28.6012   -1.0201 C.3   577  UNL577      0.0330
   3459 H          12.2190   27.7517   -0.5867 H     577  UNL577      0.0521
   3460 H          12.7607   28.5226   -2.1100 H     577  UNL577      0.0521
   3461 H          12.2556   29.5289   -0.7275 H     577  UNL577      0.0521
   3462 H          14.4991   27.7848   -0.8123 H     577  UNL577      0.2090
   3463 O          14.6525   28.6198    2.7507 O.3   578  UNL578     -0.3982
   3464 C          13.2367   28.6198    2.7507 C.3   578  UNL578      0.0330
   3465 H          12.8714   27.6243    3.0149 H     578  UNL578      0.0521
   3466 H          12.8715   28.9027    1.7605 H     578  UNL578      0.0521
   3467 H          12.8814   29.3434    3.4881 H     578  UNL578      0.0521
   3468 H          14.9382   27.9688    2.0873 H     578  UNL578      0.2090
   3469 O          14.7681   28.9964    7.4385 O.3   579  UNL579     -0.3982
   3470 C          13.9759   28.4677    6.3910 C.3   579  UNL579      0.0330
   3471 H          13.5752   29.2858    5.7873 H     579  UNL579      0.0521
   3472 H          13.1585   27.8780    6.8132 H     579  UNL579      0.0521
   3473 H          14.5988   27.8260    5.7635 H     579  UNL579      0.0521
   3474 H          14.1886   29.5610    7.9779 H     579  UNL579      0.2090
   3475 O          15.3629   25.6370    9.3501 O.3   580  UNL580     -0.3982
   3476 C          14.0340   26.1123    9.2375 C.3   580  UNL580      0.0330
   3477 H          14.0393   27.2041    9.1908 H     580  UNL580      0.0521
   3478 H          13.4520   25.7767   10.0992 H     580  UNL580      0.0521
   3479 H          13.5901   25.7128    8.3228 H     580  UNL580      0.0521
   3480 H          15.7305   26.0079   10.1704 H     580  UNL580      0.2090
   3481 O          14.2438   28.0557   11.8254 O.3   581  UNL581     -0.3982
   3482 C          14.2356   28.0864   13.2409 C.3   581  UNL581      0.0330
   3483 H          14.2496   27.0647   13.6285 H     581  UNL581      0.0521
   3484 H          13.3408   28.6076   13.5896 H     581  UNL581      0.0521
   3485 H          15.1238   28.6184   13.5898 H     581  UNL581      0.0521
   3486 H          13.4446   27.5778   11.5454 H     581  UNL581      0.2090
   3487 O          16.1454   27.3847   15.6643 O.3   582  UNL582     -0.3982
   3488 C          15.1823   27.8660   16.5836 C.3   582  UNL582      0.0330
   3489 H          15.6393   28.6187   17.2309 H     582  UNL582      0.0521
   3490 H          14.8034   27.0354   17.1840 H     582  UNL582      0.0521
   3491 H          14.3567   28.3183   16.0292 H     582  UNL582      0.0521
   3492 H          16.8651   26.9893   16.1852 H     582  UNL582      0.2090
   3493 O          13.8772   28.4526   21.0704 O.3   583  UNL583     -0.3982
   3494 C          13.8775   28.2578   19.6680 C.3   583  UNL583      0.0330
   3495 H          13.0342   27.6219   19.3874 H     583  UNL583      0.0521
   3496 H          14.8172   27.7899   19.3645 H     583  UNL583      0.0521
   3497 H          13.7798   29.2276   19.1745 H     583  UNL583      0.0521
   3498 H          13.9651   27.5755   21.4807 H     583  UNL583      0.2090
   3499 O          16.4708   29.1281   23.5781 O.3   584  UNL584     -0.3982
   3500 C          15.7112   27.9763   23.8955 C.3   584  UNL584      0.0330
   3501 H          14.6547   28.2451   23.9725 H     584  UNL584      0.0521
   3502 H          16.0614   27.5572   24.8419 H     584  UNL584      0.0521
   3503 H          15.8397   27.2362   23.1021 H     584  UNL584      0.0521
   3504 H          16.3370   29.7663   24.2994 H     584  UNL584      0.2090
   3505 O          13.8378   26.9091   26.4957 O.3   585  UNL585     -0.3982
   3506 C          13.4761   28.2778   26.4789 C.3   585  UNL585      0.0330
   3507 H          13.2915   28.6194   27.5005 H     585  UNL585      0.0521
   3508 H          12.5779   28.4108   25.8710 H     585  UNL585      0.0521
   3509 H          14.2954   28.8566   26.0460 H     585  UNL585      0.0521
   3510 H          13.0920   26.4213   26.8847 H     585  UNL585      0.2090
   3511 O          12.8873   28.6160   30.3673 O.3   586  UNL586     -0.3982
   3512 C          13.2158   27.2687   30.0821 C.3   586  UNL586      0.0330
   3513 H          13.9513   26.9107   30.8068 H     586  UNL586      0.0521
   3514 H          13.6216   27.1982   29.0699 H     586  UNL586      0.0521
   3515 H          12.3115   26.6598   30.1529 H     586  UNL586      0.0521
   3516 H          13.7088   29.1315   30.2967 H     586  UNL586      0.2090
   3517 O          12.9535   29.0230   34.2299 O.3   587  UNL587     -0.3982
   3518 C          13.5083   27.7923   33.8030 C.3   587  UNL587      0.0330
   3519 H          12.7976   26.9848   33.9959 H     587  UNL587      0.0521
   3520 H          14.4416   27.6067   34.3401 H     587  UNL587      0.0521
   3521 H          13.7120   27.8472   32.7311 H     587  UNL587      0.0521
   3522 H          12.7835   28.9441   35.1841 H     587  UNL587      0.2090
   3523 O          13.6896   28.6189   37.5318 O.3   588  UNL588     -0.3982
   3524 C          13.8944   27.2180   37.5318 C.3   588  UNL588      0.0330
   3525 H          14.7081   26.9677   38.2170 H     588  UNL588      0.0521
   3526 H          14.1399   26.8848   36.5205 H     588  UNL588      0.0521
   3527 H          12.9775   26.7249   37.8630 H     588  UNL588      0.0521
   3528 H          14.5195   29.0289   37.2338 H     588  UNL588      0.2090
   3529 O          14.6246   32.5969   -2.0604 O.3   589  UNL589     -0.3982
   3530 C          14.5020   31.7585   -0.9261 C.3   589  UNL589      0.0330
   3531 H          13.6301   31.1102   -1.0435 H     589  UNL589      0.0521
   3532 H          14.3950   32.3721   -0.0283 H     589  UNL589      0.0521
   3533 H          15.4012   31.1440   -0.8396 H     589  UNL589      0.0521
   3534 H          13.8127   33.1297   -2.1109 H     589  UNL589      0.2090
   3535 O          14.8088   32.2434    2.5538 O.3   590  UNL590     -0.3982
   3536 C          13.9954   31.8155    3.6308 C.3   590  UNL590      0.0330
   3537 H          14.3764   30.8693    4.0229 H     590  UNL590      0.0521
   3538 H          12.9666   31.6908    3.2842 H     590  UNL590      0.0521
   3539 H          14.0229   32.5716    4.4189 H     590  UNL590      0.0521
   3540 H          14.7646   31.5529    1.8705 H     590  UNL590      0.2090
   3541 O          16.4453   32.2007    6.2995 O.3   591  UNL591     -0.3982
   3542 C          15.3123   32.5137    7.0887 C.3   591  UNL591      0.0330
   3543 H          14.8597   31.5910    7.4602 H     591  UNL591      0.0521
   3544 H          14.5898   33.0695    6.4861 H     591  UNL591      0.0521
   3545 H          15.6275   33.1288    7.9348 H     591  UNL591      0.0521
   3546 H          16.1345   31.6549    5.5572 H     591  UNL591      0.2090
   3547 O          14.0643   32.6445   10.4280 O.3   592  UNL592     -0.3982
   3548 C          14.0873   31.2649   10.1108 C.3   592  UNL592      0.0330
   3549 H          15.0755   30.9938    9.7310 H     592  UNL592      0.0521
   3550 H          13.3246   31.0504    9.3584 H     592  UNL592      0.0521
   3551 H          13.8763   30.6889   11.0149 H     592  UNL592      0.0521
   3552 H          14.2547   33.1296    9.6071 H     592  UNL592      0.2090
   3553 O          16.3707   33.1295   12.8178 O.3   593  UNL593     -0.3982
   3554 C          15.5710   32.4106   13.7389 C.3   593  UNL593      0.0330
   3555 H          15.5907   31.3473   13.4876 H     593  UNL593      0.0521
   3556 H          14.5453   32.7856   13.7024 H     593  UNL593      0.0521
   3557 H          15.9730   32.5526   14.7448 H     593  UNL593      0.0521
   3558 H          15.9898   32.9846   11.9349 H     593  UNL593      0.2090
   3559 O          13.2357   32.2705   16.2975 O.3   594  UNL594     -0.3982
   3560 C          13.4390   30.8695   16.2738 C.3   594  UNL594      0.0330
   3561 H          14.3268   30.6193   16.8600 H     594  UNL594      0.0521
   3562 H          13.5656   30.5363   15.2408 H     594  UNL594      0.0521
   3563 H          12.5667   30.3764   16.7091 H     594  UNL594      0.0521
   3564 H          14.0253   32.6805   15.9053 H     594  UNL594      0.2090
   3565 O          16.0128   31.5307   19.9333 O.3   595  UNL595     -0.3982
   3566 C          15.1259   32.3045   19.1464 C.3   595  UNL595      0.0330
   3567 H          14.7309   33.1290   19.7451 H     595  UNL595      0.0521
   3568 H          14.3075   31.6734   18.7913 H     595  UNL595      0.0521
   3569 H          15.6706   32.7075   18.2895 H     595  UNL595      0.0521
   3570 H          15.5015   31.1866   20.6854 H     595  UNL595      0.2090
   3571 O          14.2654   31.2368   22.9588 O.3   596  UNL596     -0.3982
   3572 C          14.0584   32.6351   22.8780 C.3   596  UNL596      0.0330
   3573 H          14.4322   33.0050   21.9199 H     596  UNL596      0.0521
   3574 H          14.5807   33.1297   23.7005 H     596  UNL596      0.0521
   3575 H          12.9880   32.8408   22.9529 H     596  UNL596      0.0521
   3576 H          15.2234   31.0854   22.8894 H     596  UNL596      0.2090
   3577 O          15.7661   31.3625   27.1860 O.3   597  UNL597     -0.3982
   3578 C          15.4328   32.2034   26.0969 C.3   597  UNL597      0.0330
   3579 H          14.3825   32.4964   26.1697 H     597  UNL597      0.0521
   3580 H          15.6098   31.6727   25.1582 H     597  UNL597      0.0521
   3581 H          16.0612   33.0964   26.1321 H     597  UNL597      0.0521
   3582 H          15.1928   30.5792   27.1281 H     597  UNL597      0.2090
   3583 O          14.6044   32.2042   30.1002 O.3   598  UNL598     -0.3982
   3584 C          13.2278   32.5352   30.1002 C.3   598  UNL598      0.0330
   3585 H          12.9925   33.1189   30.9937 H     598  UNL598      0.0521
   3586 H          12.6320   31.6194   30.0828 H     598  UNL598      0.0521
   3587 H          13.0052   33.1290   29.2106 H     598  UNL598      0.0521
   3588 H          14.7717   31.6778   30.9005 H     598  UNL598      0.2090
   3589 O          13.3715   32.1509   34.9516 O.3   599  UNL599     -0.3982
   3590 C          13.5762   32.1509   33.5507 C.3   599  UNL599      0.0330
   3591 H          12.9511   31.3819   33.0901 H     599  UNL599      0.0521
   3592 H          14.6297   31.9562   33.3356 H     599  UNL599      0.0521
   3593 H          13.2999   33.1295   33.1512 H     599  UNL599      0.0521
   3594 H          13.6250   31.2705   35.2774 H     599  UNL599      0.2090
   3595 O          14.9792   32.9766   37.3340 O.3   600  UNL600     -0.3982
   3596 C          15.8207   31.8423   37.4323 C.3   600  UNL600      0.0330
   3597 H          15.2321   30.9769   37.7466 H     600  UNL600      0.0521
   3598 H          16.6151   32.0386   38.1565 H     600  UNL600      0.0521
   3599 H          16.2639   31.6429   36.4538 H     600  UNL600      0.0521
   3600 H          14.6006   33.1288   38.2167 H     600  UNL600      0.2090
   3601 O          19.3065   -1.7808   -1.2366 O.3   601  UNL601     -0.3982
   3602 C          18.0130   -1.2478   -1.4540 C.3   601  UNL601      0.0330
   3603 H          17.4007   -1.9803   -1.9858 H     601  UNL601      0.0521
   3604 H          18.0906   -0.3283   -2.0393 H     601  UNL601      0.0521
   3605 H          17.5538   -1.0246   -0.4882 H     601  UNL601      0.0521
   3606 H          19.6887   -1.9688   -2.1108 H     601  UNL601      0.2090
   3607 O          18.4056   -0.5588    2.1507 O.3   602  UNL602     -0.3982
   3608 C          17.0279   -0.7379    2.4234 C.3   602  UNL602      0.0330
   3609 H          16.5784   -1.3563    1.6425 H     602  UNL602      0.0521
   3610 H          16.5336    0.2359    2.4615 H     602  UNL602      0.0521
   3611 H          16.9187   -1.2375    3.3888 H     602  UNL602      0.0521
   3612 H          18.4708   -0.1136    1.2887 H     602  UNL602      0.2090
   3613 O          18.5766   -1.3826    5.1711 O.3   603  UNL603     -0.3982
   3614 C          18.8503   -1.1104    6.5333 C.3   603  UNL603      0.0330
   3615 H          19.4486   -0.1992    6.6107 H     603  UNL603      0.0521
   3616 H          19.3908   -1.9524    6.9726 H     603  UNL603      0.0521
   3617 H          17.9058   -0.9698    7.0642 H     603  UNL603      0.0521
   3618 H          19.4329   -1.5027    4.7262 H     603  UNL603      0.2090
   3619 O          19.2995   -1.0529   10.2354 O.3   604  UNL604     -0.3982
   3620 C          17.8837   -1.0529   10.2354 C.3   604  UNL604      0.0330
   3621 H          17.5184   -0.1923   10.8012 H     604  UNL604      0.0521
   3622 H          17.5185   -1.9796   10.6848 H     604  UNL604      0.0521
   3623 H          17.5284   -0.9859    9.2045 H     604  UNL604      0.0521
   3624 H          19.5852   -1.1133   11.1629 H     604  UNL604      0.2090
   3625 O          17.9918   -1.1360   13.2125 O.3   605  UNL605     -0.3982
   3626 C          16.5856   -1.1360   13.3767 C.3   605  UNL605      0.0330
   3627 H          16.2913   -1.9792   14.0065 H     605  UNL605      0.0521
   3628 H          16.1037   -1.2121   12.3989 H     605  UNL605      0.0521
   3629 H          16.2840   -0.2024   13.8574 H     605  UNL605      0.0521
   3630 H          18.2294   -1.9759   12.7840 H     605  UNL605      0.2090
   3631 O          20.1673   -1.4125   16.4773 O.3   606  UNL606     -0.3982
   3632 C          18.7515   -1.4125   16.4773 C.3   606  UNL606      0.0330
   3633 H          18.3862   -1.9793   15.6173 H     606  UNL606      0.0521
   3634 H          18.3863   -0.3837   16.4309 H     606  UNL606      0.0521
   3635 H          18.3962   -1.8818   17.3977 H     606  UNL606      0.0521
   3636 H          20.4530   -0.9904   15.6492 H     606  UNL606      0.2090
   3637 O          18.8193   -1.0701   19.8641 O.3   607  UNL607     -0.3982
   3638 C          17.4035   -1.0701   19.8641 C.3   607  UNL607      0.0330
   3639 H          17.0382   -1.7545   20.6338 H     607  UNL607      0.0521
   3640 H          17.0383   -1.3808   18.8822 H     607  UNL607      0.0521
   3641 H          17.0482   -0.0597   20.0796 H     607  UNL607      0.0521
   3642 H          19.1050   -1.9792   19.6702 H     607  UNL607      0.2090
   3643 O          20.0678   -1.4125   23.4797 O.3   608  UNL608     -0.3982
   3644 C          18.6900   -1.4125   23.1535 C.3   608  UNL608      0.0330
   3645 H          18.5327   -1.9793   22.2325 H     608  UNL608      0.0521
   3646 H          18.3454   -0.3837   23.0242 H     608  UNL608      0.0521
   3647 H          18.1323   -1.8818   23.9673 H     608  UNL608      0.0521
   3648 H          20.5365   -0.9904   22.7397 H     608  UNL608      0.2090
   3649 O          19.6690   -1.2318   26.4264 O.3   609  UNL609     -0.3982
   3650 C          18.3006   -0.9057   26.5862 C.3   609  UNL609      0.0330
   3651 H          18.1127   -0.6160   27.6231 H     609  UNL609      0.0521
   3652 H          17.6859   -1.7693   26.3209 H     609  UNL609      0.0521
   3653 H          18.0551   -0.0701   25.9266 H     609  UNL609      0.0521
   3654 H          19.8570   -1.9758   27.0237 H     609  UNL609      0.2090
   3655 O          20.6321   -1.4100   29.6757 O.3   610  UNL610     -0.3982
   3656 C          19.2544   -1.4100   30.0019 C.3   610  UNL610      0.0330
   3657 H          18.7008   -1.9767   29.2492 H     610  UNL610      0.0521
   3658 H          18.8884   -0.3811   30.0409 H     610  UNL610      0.0521
   3659 H          19.1207   -1.8792   30.9794 H     610  UNL610      0.0521
   3660 H          20.7194   -0.9878   28.8041 H     610  UNL610      0.2090
   3661 O          17.2189   -1.1605   34.4382 O.3   611  UNL611     -0.3982
   3662 C          17.5782   -1.0947   33.0703 C.3   611  UNL611      0.0330
   3663 H          17.2036   -1.9804   32.5512 H     611  UNL611      0.0521
   3664 H          18.6658   -1.0394   32.9806 H     611  UNL611      0.0521
   3665 H          17.1325   -0.2004   32.6285 H     611  UNL611      0.0521
   3666 H          17.6286   -1.9635   34.8028 H     611  UNL611      0.2090
   3667 O          18.5941   -1.5786   37.3947 O.3   612  UNL612     -0.3982
   3668 C          18.0090   -0.2933   37.2943 C.3   612  UNL612      0.0330
   3669 H          18.3039    0.3107   38.1560 H     612  UNL612      0.0521
   3670 H          16.9211   -0.3890   37.2581 H     612  UNL612      0.0521
   3671 H          18.3609    0.1867   36.3781 H     612  UNL612      0.0521
   3672 H          18.2634   -1.9796   38.2165 H     612  UNL612      0.2090
   3673 O          19.6907    2.3962   -1.4430 O.3   613  UNL613     -0.3982
   3674 C          20.9871    2.9633   -1.4914 C.3   613  UNL613      0.0330
   3675 H          21.6361    2.3389   -2.1104 H     613  UNL613      0.0521
   3676 H          21.3917    3.0365   -0.4790 H     613  UNL613      0.0521
   3677 H          20.9217    3.9625   -1.9283 H     613  UNL613      0.0521
   3678 H          19.7806    1.5109   -1.0510 H     613  UNL613      0.2090
   3679 O          21.2507    4.0396    2.7002 O.3   614  UNL614     -0.3982
   3680 C          20.8884    2.6723    2.7624 C.3   614  UNL614      0.0330
   3681 H          19.9263    2.5264    2.2652 H     614  UNL614      0.0521
   3682 H          20.8219    2.3593    3.8072 H     614  UNL614      0.0521
   3683 H          21.6523    2.0789    2.2546 H     614  UNL614      0.0521
   3684 H          20.5548    4.5407    3.1587 H     614  UNL614      0.2090
   3685 O          18.2790    3.5801    6.5545 O.3   615  UNL615     -0.3982
   3686 C          18.5023    3.5767    5.1564 C.3   615  UNL615      0.0330
   3687 H          17.9070    4.3653    4.6895 H     615  UNL615      0.0521
   3688 H          18.2245    2.6034    4.7446 H     615  UNL615      0.0521
   3689 H          19.5620    3.7616    4.9654 H     615  UNL615      0.0521
   3690 H          17.3310    3.4136    6.6928 H     615  UNL615      0.2090
   3691 O          19.4724    3.0992    9.1697 O.3   616  UNL616     -0.3982
   3692 C          20.3365    2.9038   10.2741 C.3   616  UNL616      0.0330
   3693 H          20.5072    3.8585   10.7778 H     616  UNL616      0.0521
   3694 H          21.2855    2.4885    9.9262 H     616  UNL616      0.0521
   3695 H          19.8692    2.2047   10.9716 H     616  UNL616      0.0521
   3696 H          19.9135    3.7234    8.5687 H     616  UNL616      0.2090
   3697 O          17.9796    1.8413   13.2930 O.3   617  UNL617     -0.3982
   3698 C          18.3438    3.1953   13.0967 C.3   617  UNL617      0.0330
   3699 H          17.7632    3.6137   12.2708 H     617  UNL617      0.0521
   3700 H          19.4117    3.2575   12.8738 H     617  UNL617      0.0521
   3701 H          18.1311    3.7563   14.0097 H     617  UNL617      0.0521
   3702 H          18.1797    1.3689   12.4669 H     617  UNL617      0.2090
   3703 O          18.4046    3.1011   16.5331 O.3   618  UNL618     -0.3982
   3704 C          19.4671    2.1927   16.3086 C.3   618  UNL618      0.0330
   3705 H          19.6923    1.6580   17.2347 H     618  UNL618      0.0521
   3706 H          20.3494    2.7397   15.9674 H     618  UNL618      0.0521
   3707 H          19.1659    1.4763   15.5408 H     618  UNL618      0.0521
   3708 H          18.7011    3.7239   17.2184 H     618  UNL618      0.2090
   3709 O          19.9218    2.9296   19.4158 O.3   619  UNL619     -0.3982
   3710 C          18.6124    2.6310   19.8640 C.3   619  UNL619      0.0330
   3711 H          17.8973    2.8317   19.0624 H     619  UNL619      0.0521
   3712 H          18.3773    3.2428   20.7383 H     619  UNL619      0.0521
   3713 H          18.5629    1.5744   20.1375 H     619  UNL619      0.0521
   3714 H          19.9350    3.8731   19.1805 H     619  UNL619      0.2090
   3715 O          20.8042    1.9131   22.3548 O.3   620  UNL620     -0.3982
   3716 C          19.5995    1.9131   23.0985 C.3   620  UNL620      0.0330
   3717 H          19.6485    1.1441   23.8734 H     620  UNL620      0.0521
   3718 H          18.7575    1.7184   22.4297 H     620  UNL620      0.0521
   3719 H          19.4711    2.8917   23.5669 H     620  UNL620      0.0521
   3720 H          20.8908    1.0327   21.9512 H     620  UNL620      0.2090
   3721 O          18.4010    3.7481   26.5058 O.3   621  UNL621     -0.3982
   3722 C          18.2050    2.4947   27.1344 C.3   621  UNL621      0.0330
   3723 H          17.5503    1.8748   26.5169 H     621  UNL621      0.0521
   3724 H          17.7580    2.6463   28.1199 H     621  UNL621      0.0521
   3725 H          19.1720    1.9990   27.2477 H     621  UNL621      0.0521
   3726 H          17.5264    4.1640   26.4190 H     621  UNL621      0.2090
   3727 O          20.4459    1.5461   31.1376 O.3   622  UNL622     -0.3982
   3728 C          20.1931    1.9849   29.8155 C.3   622  UNL622      0.0330
   3729 H          20.9613    2.7018   29.5153 H     622  UNL622      0.0521
   3730 H          19.2060    2.4511   29.7680 H     622  UNL622      0.0521
   3731 H          20.2194    1.1234   29.1441 H     622  UNL622      0.0521
   3732 H          20.4161    2.3316   31.7100 H     622  UNL622      0.2090
   3733 O          18.0104    2.7014   32.5670 O.3   623  UNL623     -0.3982
   3734 C          17.9808    2.1815   33.8836 C.3   623  UNL623      0.0330
   3735 H          17.1142    1.5256   33.9979 H     623  UNL623      0.0521
   3736 H          17.9252    3.0046   34.6001 H     623  UNL623      0.0521
   3737 H          18.8943    1.6088   34.0601 H     623  UNL623      0.0521
   3738 H          17.1879    3.2042   32.4398 H     623  UNL623      0.2090
   3739 O          18.7939    3.0004   37.6278 O.3   624  UNL624     -0.3982
   3740 C          17.3781    3.0004   37.6278 C.3   624  UNL624      0.0330
   3741 H          17.0128    2.1551   38.2162 H     624  UNL624      0.0521
   3742 H          17.0129    2.9279   36.6005 H     624  UNL624      0.0521
   3743 H          17.0228    3.9324   38.0735 H     624  UNL624      0.0521
   3744 H          19.0796    2.1619   37.2267 H     624  UNL624      0.2090
   3745 O          18.7717    5.2941   -1.4552 O.3   625  UNL625     -0.3982
   3746 C          19.4485    6.5085   -1.1872 C.3   625  UNL625      0.0330
   3747 H          18.7445    7.2358   -0.7753 H     625  UNL625      0.0521
   3748 H          19.8878    6.8933   -2.1108 H     625  UNL625      0.0521
   3749 H          20.2417    6.3201   -0.4599 H     625  UNL625      0.0521
   3750 H          18.0743    5.4927   -2.1031 H     625  UNL625      0.2090
   3751 O          18.6199    5.8929    2.0968 O.3   626  UNL626     -0.3982
   3752 C          17.2041    5.8929    2.0968 C.3   626  UNL626      0.0330
   3753 H          16.8388    5.1239    2.7820 H     626  UNL626      0.0521
   3754 H          16.8389    5.6982    1.0855 H     626  UNL626      0.0521
   3755 H          16.8488    6.8715    2.4280 H     626  UNL626      0.0521
   3756 H          18.9056    5.0125    1.7988 H     626  UNL626      0.2090
   3757 O          19.1013    6.8165    5.3043 O.3   627  UNL627     -0.3982
   3758 C          18.4239    7.3050    6.4475 C.3   627  UNL627      0.0330
   3759 H          19.1424    7.7700    7.1270 H     627  UNL627      0.0521
   3760 H          17.9127    6.4800    6.9495 H     627  UNL627      0.0521
   3761 H          17.6883    8.0493    6.1335 H     627  UNL627      0.0521
   3762 H          19.7468    6.1585    5.6142 H     627  UNL627      0.2090
   3763 O          18.5933    7.5087    9.6943 O.3   628  UNL628     -0.3982
   3764 C          18.2369    6.1403    9.6241 C.3   628  UNL628      0.0330
   3765 H          17.1968    6.0498    9.3012 H     628  UNL628      0.0521
   3766 H          18.3663    5.6784   10.6059 H     628  UNL628      0.0521
   3767 H          18.8855    5.6409    8.9006 H     628  UNL628      0.0521
   3768 H          18.0012    7.9252   10.3435 H     628  UNL628      0.2090
   3769 O          20.4814    6.9045   12.5061 O.3   629  UNL629     -0.3982
   3770 C          19.5642    7.3351   13.4949 C.3   629  UNL629      0.0330
   3771 H          19.2111    6.4728   14.0659 H     629  UNL629      0.0521
   3772 H          18.7209    7.8388   13.0163 H     629  UNL629      0.0521
   3773 H          20.0686    8.0328   14.1675 H     629  UNL629      0.0521
   3774 H          20.0057    6.2871   11.9247 H     629  UNL629      0.2090
   3775 O          19.5746    6.6960   16.6506 O.3   630  UNL630     -0.3982
   3776 C          18.1588    6.6960   16.6506 C.3   630  UNL630      0.0330
   3777 H          17.7935    7.1594   15.7308 H     630  UNL630      0.0521
   3778 H          17.7936    7.2486   17.5197 H     630  UNL630      0.0521
   3779 H          17.8035    5.6641   16.7021 H     630  UNL630      0.0521
   3780 H          19.8603    7.6243   16.6043 H     630  UNL630      0.2090
   3781 O          18.5171    7.4245   20.0758 O.3   631  UNL631     -0.3982
   3782 C          18.3905    6.0147   20.1095 C.3   631  UNL631      0.0330
   3783 H          19.1976    5.5899   20.7115 H     631  UNL631      0.0521
   3784 H          18.4340    5.6197   19.0917 H     631  UNL631      0.0521
   3785 H          17.4288    5.7550   20.5580 H     631  UNL631      0.0521
   3786 H          19.3792    7.6244   19.6730 H     631  UNL631      0.2090
   3787 O          19.5931    6.6315   23.2763 O.3   632  UNL632     -0.3982
   3788 C          18.2154    6.3076   23.2385 C.3   632  UNL632      0.0330
   3789 H          17.6689    7.0962   22.7154 H     632  UNL632      0.0521
   3790 H          17.8369    6.2020   24.2581 H     632  UNL632      0.0521
   3791 H          18.0870    5.3629   22.7049 H     632  UNL632      0.0521
   3792 H          19.6755    7.4736   23.7554 H     632  UNL632      0.2090
   3793 O          20.4373    6.6939   26.2273 O.3   633  UNL633     -0.3982
   3794 C          19.7326    6.8160   27.4492 C.3   633  UNL633      0.0330
   3795 H          19.0158    7.6378   27.3769 H     633  UNL633      0.0521
   3796 H          20.4392    7.0051   28.2609 H     633  UNL633      0.0521
   3797 H          19.1969    5.8843   27.6450 H     633  UNL633      0.0521
   3798 H          20.9024    7.5351   26.0804 H     633  UNL633      0.2090
   3799 O          18.9890    7.2854   30.5464 O.3   634  UNL634     -0.3982
   3800 C          17.5827    7.2854   30.3822 C.3   634  UNL634      0.0330
   3801 H          17.1513    6.4422   30.9273 H     634  UNL634      0.0521
   3802 H          17.3391    7.2093   29.3197 H     634  UNL634      0.0521
   3803 H          17.1785    8.2190   30.7805 H     634  UNL634      0.0521
   3804 H          19.3189    6.4455   30.1841 H     634  UNL634      0.2090
   3805 O          18.0517    5.5843   34.7440 O.3   635  UNL635     -0.3982
   3806 C          18.0221    5.7869   33.3430 C.3   635  UNL635      0.0330
   3807 H          18.8734    5.2795   32.8825 H     635  UNL635      0.0521
   3808 H          18.0624    6.8575   33.1279 H     635  UNL635      0.0521
   3809 H          17.0938    5.3719   32.9436 H     635  UNL635      0.0521
   3810 H          18.8862    5.9625   35.0698 H     635  UNL635      0.2090
   3811 O          19.6972    6.2621   37.5426 O.3   636  UNL636     -0.3982
   3812 C          18.5136    7.0307   37.6551 C.3   636  UNL636      0.0330
   3813 H          17.7519    6.4531   38.1846 H     636  UNL636      0.0521
   3814 H          18.1556    7.2981   36.6579 H     636  UNL636      0.0521
   3815 H          18.7334    7.9414   38.2172 H     636  UNL636      0.0521
   3816 H          19.4711    5.4612   37.0395 H     636  UNL636      0.2090
   3817 O          19.1672    9.6774   -1.6234 O.3   637  UNL637     -0.3982
   3818 C          19.3197    9.9217   -0.2372 C.3   637  UNL637      0.0330
   3819 H          19.9470   10.8042   -0.0887 H     637  UNL637      0.0521
   3820 H          19.7780    9.0514    0.2387 H     637  UNL637      0.0521
   3821 H          18.3355   10.0988    0.2028 H     637  UNL637      0.0521
   3822 H          20.0562    9.5239   -1.9860 H     637  UNL637      0.2090
   3823 O          18.8318    9.1773    3.4299 O.3   638  UNL638     -0.3982
   3824 C          17.4256    9.3415    3.4299 C.3   638  UNL638      0.0330
   3825 H          16.9736    8.6200    4.1151 H     638  UNL638      0.0521
   3826 H          17.0403    9.1904    2.4186 H     638  UNL638      0.0521
   3827 H          17.1862   10.3547    3.7611 H     638  UNL638      0.0521
   3828 H          19.0135    8.2697    3.1319 H     638  UNL638      0.2090
   3829 O          19.2781   10.8360    5.7386 O.3   639  UNL639     -0.3982
   3830 C          20.3749   10.0797    6.2177 C.3   639  UNL639      0.0330
   3831 H          20.5438    9.2238    5.5595 H     639  UNL639      0.0521
   3832 H          20.1655    9.7359    7.2336 H     639  UNL639      0.0521
   3833 H          21.2659   10.7118    6.2257 H     639  UNL639      0.0521
   3834 H          18.5028   10.2492    5.7429 H     639  UNL639      0.2090
   3835 O          17.6983   10.4771    8.2111 O.3   640  UNL640     -0.3982
   3836 C          18.0410   10.5711    9.5815 C.3   640  UNL640      0.0330
   3837 H          19.0566   10.1962    9.7307 H     640  UNL640      0.0521
   3838 H          17.3344    9.9865   10.1756 H     640  UNL640      0.0521
   3839 H          17.9928   11.6185    9.8888 H     640  UNL640      0.0521
   3840 H          17.7499    9.5371    7.9676 H     640  UNL640      0.2090
   3841 O          20.5445   10.6123   13.3101 O.3   641  UNL641     -0.3982
   3842 C          19.1298   10.6689   13.3132 C.3   641  UNL641      0.0330
   3843 H          18.7326    9.8451   13.9114 H     641  UNL641      0.0521
   3844 H          18.7593   10.6002   12.2875 H     641  UNL641      0.0521
   3845 H          18.8132   11.6191   13.7497 H     641  UNL641      0.0521
   3846 H          20.7954    9.7588   12.9174 H     641  UNL641      0.2090
   3847 O          17.8636    9.7508   16.7459 O.3   642  UNL642     -0.3982
   3848 C          18.3856   11.0669   16.7459 C.3   642  UNL642      0.0330
   3849 H          17.9934   11.6154   15.8859 H     642  UNL642      0.0521
   3850 H          19.4766   11.0271   16.6995 H     642  UNL642      0.0521
   3851 H          18.0804   11.5702   17.6663 H     642  UNL642      0.0521
   3852 H          18.1507    9.3296   15.9179 H     642  UNL642      0.2090
   3853 O          21.1733   10.0505   20.3525 O.3   643  UNL643     -0.3982
   3854 C          19.9731   10.3618   19.6690 C.3   643  UNL643      0.0330
   3855 H          19.1284   10.2777   20.3573 H     643  UNL643      0.0521
   3856 H          19.8424    9.6750   18.8293 H     643  UNL643      0.0521
   3857 H          20.0336   11.3859   19.2933 H     643  UNL643      0.0521
   3858 H          21.0901    9.1366   20.6741 H     643  UNL643      0.2090
   3859 O          19.5054    9.9370   22.8254 O.3   644  UNL644     -0.3982
   3860 C          18.0992    9.9370   22.9895 C.3   644  UNL644      0.0330
   3861 H          17.8049    9.0938   23.6193 H     644  UNL644      0.0521
   3862 H          17.6173    9.8609   22.0118 H     644  UNL644      0.0521
   3863 H          17.7976   10.8706   23.4702 H     644  UNL644      0.0521
   3864 H          19.7430    9.0971   22.3968 H     644  UNL644      0.2090
   3865 O          17.7045   10.4640   26.0571 O.3   645  UNL645     -0.3982
   3866 C          19.0692   10.0872   26.0476 C.3   645  UNL645      0.0330
   3867 H          19.1602    9.0529   25.7066 H     645  UNL645      0.0521
   3868 H          19.4829   10.1880   27.0540 H     645  UNL645      0.0521
   3869 H          19.6142   10.7430   25.3646 H     645  UNL645      0.0521
   3870 H          17.2469    9.8650   26.6714 H     645  UNL645      0.2090
   3871 O          18.1844   10.8335   29.0529 O.3   646  UNL646     -0.3982
   3872 C          17.7881   10.8438   30.4121 C.3   646  UNL646      0.0330
   3873 H          18.4243   10.1632   30.9833 H     646  UNL646      0.0521
   3874 H          16.7430   10.5345   30.4901 H     646  UNL646      0.0521
   3875 H          17.8963   11.8571   30.8060 H     646  UNL646      0.0521
   3876 H          18.0775    9.9221   28.7311 H     646  UNL646      0.2090
   3877 O          20.6859   10.9557   34.0752 O.3   647  UNL647     -0.3982
   3878 C          19.6026   10.4662   33.3062 C.3   647  UNL647      0.0330
   3879 H          18.9138    9.9175   33.9533 H     647  UNL647      0.0521
   3880 H          19.9808    9.8097   32.5188 H     647  UNL647      0.0521
   3881 H          19.0785   11.3108   32.8528 H     647  UNL647      0.0521
   3882 H          21.1315   10.1841   34.4646 H     647  UNL647      0.2090
   3883 O          17.8955   10.5669   37.8906 O.3   648  UNL648     -0.3982
   3884 C          17.8320   10.3722   36.4897 C.3   648  UNL648      0.0330
   3885 H          17.2946   11.2049   36.0291 H     648  UNL648      0.0521
   3886 H          17.3204    9.4309   36.2746 H     648  UNL648      0.0521
   3887 H          18.8481   10.3317   36.0902 H     648  UNL648      0.0521
   3888 H          16.9798   10.5986   38.2164 H     648  UNL648      0.2090
   3889 O          20.4705   13.0911   -1.2544 O.3   649  UNL649     -0.3982
   3890 C          20.0735   14.4439   -1.3842 C.3   649  UNL649      0.0330
   3891 H          20.7180   14.9457   -2.1102 H     649  UNL649      0.0521
   3892 H          20.1449   14.9402   -0.4133 H     649  UNL649      0.0521
   3893 H          19.0389   14.4786   -1.7334 H     649  UNL649      0.0521
   3894 H          21.3918   13.0923   -0.9433 H     649  UNL649      0.2090
   3895 O          18.5454   13.8482    1.2879 O.3   650  UNL650     -0.3982
   3896 C          17.1464   13.7040    1.1248 C.3   650  UNL650      0.0330
   3897 H          16.8224   12.7593    1.5684 H     650  UNL650      0.0521
   3898 H          16.8989   13.7231    0.0607 H     650  UNL650      0.0521
   3899 H          16.6428   14.5323    1.6287 H     650  UNL650      0.0521
   3900 H          18.9650   13.0996    0.8307 H     650  UNL650      0.2090
   3901 O          19.7833   13.8983    5.0606 O.3   651  UNL651     -0.3982
   3902 C          18.3675   13.8983    5.0606 C.3   651  UNL651      0.0330
   3903 H          18.0022   13.0871    5.6953 H     651  UNL651      0.0521
   3904 H          18.0023   13.7686    4.0389 H     651  UNL651      0.0521
   3905 H          18.0122   14.8537    5.4536 H     651  UNL651      0.0521
   3906 H          20.0690   13.0387    4.7070 H     651  UNL651      0.2090
   3907 O          18.4436   14.3143    8.1727 O.3   652  UNL652     -0.3982
   3908 C          19.7197   13.8112    8.5234 C.3   652  UNL652      0.0330
   3909 H          19.6028   12.9284    9.1569 H     652  UNL652      0.0521
   3910 H          20.2829   14.5822    9.0548 H     652  UNL652      0.0521
   3911 H          20.2553   13.5347    7.6122 H     652  UNL652      0.0521
   3912 H          17.9924   14.5510    9.0008 H     652  UNL652      0.2090
   3913 O          18.8282   13.8115   12.3130 O.3   653  UNL653     -0.3982
   3914 C          17.4645   13.8972   12.6838 C.3   653  UNL653      0.0330
   3915 H          17.2000   13.0375   13.3044 H     653  UNL653      0.0521
   3916 H          16.8424   13.9170   11.7857 H     653  UNL653      0.0521
   3917 H          17.3082   14.8166   13.2529 H     653  UNL653      0.0521
   3918 H          18.9362   12.9864   11.8098 H     653  UNL653      0.2090
   3919 O          19.4444   14.3894   16.8290 O.3   654  UNL654     -0.3982
   3920 C          19.5636   13.9922   15.4753 C.3   654  UNL654      0.0330
   3921 H          20.2105   13.1140   15.4079 H     654  UNL654      0.0521
   3922 H          19.9838   14.8134   14.8895 H     654  UNL654      0.0521
   3923 H          18.5724   13.7425   15.0897 H     654  UNL654      0.0521
   3924 H          20.3391   14.6046   17.1435 H     654  UNL654      0.2090
   3925 O          18.0657   14.2750   20.8869 O.3   655  UNL655     -0.3982
   3926 C          17.8618   14.2940   19.4859 C.3   655  UNL655      0.0330
   3927 H          16.8065   14.4812   19.2729 H     655  UNL655      0.0521
   3928 H          18.1660   13.3349   19.0596 H     655  UNL655      0.0521
   3929 H          18.4666   15.0924   19.0497 H     655  UNL655      0.0521
   3930 H          17.5167   13.5571   21.2458 H     655  UNL655      0.2090
   3931 O          20.5267   12.7502   23.3600 O.3   656  UNL656     -0.3982
   3932 C          20.0732   14.0811   23.1940 C.3   656  UNL656      0.0330
   3933 H          20.5618   14.7277   23.9272 H     656  UNL656      0.0521
   3934 H          18.9891   14.1167   23.3262 H     656  UNL656      0.0521
   3935 H          20.3265   14.4198   22.1867 H     656  UNL656      0.0521
   3936 H          20.2879   12.4775   24.2623 H     656  UNL656      0.2090
   3937 O          17.8019   13.7610   27.3121 O.3   657  UNL657     -0.3982
   3938 C          18.0917   13.6606   25.9299 C.3   657  UNL657      0.0330
   3939 H          17.2889   13.1158   25.4270 H     657  UNL657      0.0521
   3940 H          19.0420   13.1388   25.7930 H     657  UNL657      0.0521
   3941 H          18.1665   14.6658   25.5086 H     657  UNL657      0.0521
   3942 H          17.7416   12.8543   27.6580 H     657  UNL657      0.2090
   3943 O          20.4129   14.2579   29.2112 O.3   658  UNL658     -0.3982
   3944 C          19.7848   14.0873   30.4685 C.3   658  UNL658      0.0330
   3945 H          18.7324   13.8331   30.3196 H     658  UNL658      0.0521
   3946 H          19.8694   15.0103   31.0472 H     658  UNL658      0.0521
   3947 H          20.2808   13.2759   31.0062 H     658  UNL658      0.0521
   3948 H          19.9516   14.9838   28.7575 H     658  UNL658      0.2090
   3949 O          17.4649   13.4475   34.3234 O.3   659  UNL659     -0.3982
   3950 C          18.1208   14.4560   33.5769 C.3   659  UNL659      0.0330
   3951 H          19.0253   14.0442   33.1225 H     659  UNL659      0.0521
   3952 H          18.3779   15.2890   34.2357 H     659  UNL659      0.0521
   3953 H          17.4494   14.8097   32.7910 H     659  UNL659      0.0521
   3954 H          18.0846   13.1534   35.0126 H     659  UNL659      0.2090
   3955 O          18.1746   13.8146   37.8284 O.3   660  UNL660     -0.3982
   3956 C          16.7778   13.6373   37.6804 C.3   660  UNL660      0.0330
   3957 H          16.4649   12.7377   38.2163 H     660  UNL660      0.0521
   3958 H          16.5316   13.5465   36.6196 H     660  UNL660      0.0521
   3959 H          16.2631   14.5055   38.0986 H     660  UNL660      0.0521
   3960 H          18.6042   13.0293   37.4486 H     660  UNL660      0.2090
   3961 O          18.7763   17.1830   -0.7639 O.3   661  UNL661     -0.3982
   3962 C          17.5473   16.8921   -1.4038 C.3   661  UNL661      0.0330
   3963 H          17.2072   17.7703   -1.9582 H     661  UNL661      0.0521
   3964 H          16.8033   16.6102   -0.6548 H     661  UNL661      0.0521
   3965 H          17.6958   16.0611   -2.0973 H     661  UNL661      0.0521
   3966 H          18.6132   17.9237   -0.1553 H     661  UNL661      0.2090
   3967 O          17.9926   17.8926    3.4426 O.3   662  UNL662     -0.3982
   3968 C          18.1973   16.5760    2.9640 C.3   662  UNL662      0.0330
   3969 H          19.0110   16.1067    3.5225 H     662  UNL662      0.0521
   3970 H          18.4428   16.6084    1.8997 H     662  UNL662      0.0521
   3971 H          17.2804   15.9995    3.1068 H     662  UNL662      0.0521
   3972 H          18.8224   18.3798    3.3027 H     662  UNL662      0.2090
   3973 O          18.2421   17.2854    6.3820 O.3   663  UNL663     -0.3982
   3974 C          16.8263   17.2854    6.3820 C.3   663  UNL663      0.0330
   3975 H          16.4610   18.0927    5.7424 H     663  UNL663      0.0521
   3976 H          16.4611   17.4213    7.4029 H     663  UNL663      0.0521
   3977 H          16.4710   16.3275    5.9948 H     663  UNL663      0.0521
   3978 H          18.5278   18.1471    6.7304 H     663  UNL663      0.2090
   3979 O          21.1585   17.1892    9.7557 O.3   664  UNL664     -0.3982
   3980 C          19.7522   17.1892    9.9199 C.3   664  UNL664      0.0330
   3981 H          19.5004   16.8091   10.9131 H     664  UNL664      0.0521
   3982 H          19.2948   16.5618    9.1511 H     664  UNL664      0.0521
   3983 H          19.3828   18.2124    9.8194 H     664  UNL664      0.0521
   3984 H          21.4572   16.2687    9.8501 H     664  UNL664      0.2090
   3985 O          17.9601   18.0210   12.6510 O.3   665  UNL665     -0.3982
   3986 C          18.4433   17.3616   13.8069 C.3   665  UNL665      0.0330
   3987 H          19.1152   16.5519   13.5115 H     665  UNL665      0.0521
   3988 H          17.6019   16.9613   14.3776 H     665  UNL665      0.0521
   3989 H          18.9900   18.0794   14.4229 H     665  UNL665      0.0521
   3990 H          17.4798   17.3595   12.1244 H     665  UNL665      0.2090
   3991 O          20.5899   17.9921   16.8730 O.3   666  UNL666     -0.3982
   3992 C          19.3450   17.5599   17.3906 C.3   666  UNL666      0.0330
   3993 H          19.5124   16.8002   18.1582 H     666  UNL666      0.0521
   3994 H          18.7365   17.1480   16.5819 H     666  UNL666      0.0521
   3995 H          18.8284   18.4146   17.8335 H     666  UNL666      0.0521
   3996 H          21.0249   17.2127   16.4870 H     666  UNL666      0.2090
   3997 O          17.4585   17.4406   21.7504 O.3   667  UNL667     -0.3982
   3998 C          17.6633   17.4406   20.3495 C.3   667  UNL667      0.0330
   3999 H          17.0381   16.6716   19.8890 H     667  UNL667      0.0521
   4000 H          18.7167   17.2459   20.1344 H     667  UNL667      0.0521
   4001 H          17.3869   18.4192   19.9501 H     667  UNL667      0.0521
   4002 H          17.7121   16.5602   22.0762 H     667  UNL667      0.2090
   4003 O          20.5538   18.1454   22.5561 O.3   668  UNL668     -0.3982
   4004 C          19.9257   17.6478   23.7233 C.3   668  UNL668      0.0330
   4005 H          19.3929   16.7237   23.4858 H     668  UNL668      0.0521
   4006 H          19.2275   18.3947   24.1090 H     668  UNL668      0.0521
   4007 H          20.6890   17.4422   24.4774 H     668  UNL668      0.0521
   4008 H          19.8521   18.3185   21.9057 H     668  UNL668      0.2090
   4009 O          19.5451   16.9135   26.8827 O.3   669  UNL669     -0.3982
   4010 C          18.1643   17.1863   26.7293 C.3   669  UNL669      0.0330
   4011 H          17.5996   16.2520   26.7787 H     669  UNL669      0.0521
   4012 H          17.9937   17.6773   25.7681 H     669  UNL669      0.0521
   4013 H          17.8411   17.8480   27.5364 H     669  UNL669      0.0521
   4014 H          19.8028   16.3248   26.1529 H     669  UNL669      0.2090
   4015 O          20.4089   17.3130   29.7073 O.3   670  UNL670     -0.3982
   4016 C          19.0275   17.3598   30.0139 C.3   670  UNL670      0.0330
   4017 H          18.5919   18.2722   29.5990 H     670  UNL670      0.0521
   4018 H          18.8931   17.3395   31.0981 H     670  UNL670      0.0521
   4019 H          18.5357   16.4902   29.5717 H     670  UNL670      0.0521
   4020 H          20.8182   18.0964   30.1124 H     670  UNL670      0.2090
   4021 O          16.8673   18.1420   34.4494 O.3   671  UNL671     -0.3982
   4022 C          17.2318   17.6181   33.1855 C.3   671  UNL671      0.0330
   4023 H          16.5799   16.7770   32.9370 H     671  UNL671      0.0521
   4024 H          18.2737   17.2897   33.2130 H     671  UNL671      0.0521
   4025 H          17.1183   18.3998   32.4308 H     671  UNL671      0.0521
   4026 H          16.9783   17.4262   35.0981 H     671  UNL671      0.2090
   4027 O          20.1994   17.5019   37.6881 O.3   672  UNL672     -0.3982
   4028 C          18.7931   17.3388   37.6690 C.3   672  UNL672      0.0330
   4029 H          18.4406   17.3282   36.6347 H     672  UNL672      0.0521
   4030 H          18.3229   18.1589   38.2171 H     672  UNL672      0.0521
   4031 H          18.5389   16.3904   38.1481 H     672  UNL672      0.0521
   4032 H          20.3943   18.3512   37.2567 H     672  UNL672      0.2090
   4033 O          19.8081   19.9070   -1.3813 O.3   673  UNL673     -0.3982
   4034 C          19.4431   21.2748   -1.3623 C.3   673  UNL673      0.0330
   4035 H          20.0256   21.8187   -2.1102 H     673  UNL673      0.0521
   4036 H          19.6293   21.6887   -0.3683 H     673  UNL673      0.0521
   4037 H          18.3799   21.3621   -1.5977 H     673  UNL673      0.0521
   4038 H          20.7559   19.8612   -1.1691 H     673  UNL673      0.2090
   4039 O          18.6804   20.0640    1.4288 O.3   674  UNL674     -0.3982
   4040 C          17.2646   20.0640    1.4288 C.3   674  UNL674      0.0330
   4041 H          16.8993   21.0310    1.0741 H     674  UNL674      0.0521
   4042 H          16.8994   19.8735    2.4409 H     674  UNL674      0.0521
   4043 H          16.9093   19.2755    0.7612 H     674  UNL674      0.0521
   4044 H          18.9661   20.7733    2.0294 H     674  UNL674      0.2090
   4045 O          18.4229   20.9361    5.0327 O.3   675  UNL675     -0.3982
   4046 C          18.2555   20.7503    6.4263 C.3   675  UNL675      0.0330
   4047 H          17.4402   20.0450    6.6054 H     675  UNL675      0.0521
   4048 H          18.0317   21.7100    6.8984 H     675  UNL675      0.0521
   4049 H          19.1810   20.3480    6.8448 H     675  UNL675      0.0521
   4050 H          17.5863   21.2937    4.6896 H     675  UNL675      0.2090
   4051 O          17.7623   20.9648   10.8112 O.3   676  UNL676     -0.3982
   4052 C          17.6738   20.3150    9.5565 C.3   676  UNL676      0.0330
   4053 H          17.1885   19.3438    9.6815 H     676  UNL676      0.0521
   4054 H          18.6762   20.1827    9.1422 H     676  UNL676      0.0521
   4055 H          17.0800   20.9319    8.8779 H     676  UNL676      0.0521
   4056 H          18.2945   20.3943   11.3916 H     676  UNL676      0.2090
   4057 O          20.9275   21.3021   12.2100 O.3   677  UNL677     -0.3982
   4058 C          19.9056   21.3494   13.1887 C.3   677  UNL677      0.0330
   4059 H          19.5420   20.3380   13.3864 H     677  UNL677      0.0521
   4060 H          19.0869   21.9791   12.8318 H     677  UNL677      0.0521
   4061 H          20.3142   21.7737   14.1088 H     677  UNL677      0.0521
   4062 H          20.5354   20.9216   11.4057 H     677  UNL677      0.2090
   4063 O          17.6066   21.8186   16.7320 O.3   678  UNL678     -0.3982
   4064 C          17.7054   20.4177   16.5526 C.3   678  UNL678      0.0330
   4065 H          18.6981   20.1674   16.1705 H     678  UNL678      0.0521
   4066 H          16.9380   20.0845   15.8497 H     678  UNL678      0.0521
   4067 H          17.5531   19.9246   17.5156 H     678  UNL678      0.0521
   4068 H          17.7459   22.2286   15.8614 H     678  UNL678      0.2090
   4069 O          20.6073   21.7833   18.9291 O.3   679  UNL679     -0.3982
   4070 C          19.9472   20.6300   19.4174 C.3   679  UNL679      0.0330
   4071 H          18.8668   20.7548   19.3107 H     679  UNL679      0.0521
   4072 H          20.2052   20.4790   20.4684 H     679  UNL679      0.0521
   4073 H          20.2707   19.7628   18.8369 H     679  UNL679      0.0521
   4074 H          20.3004   22.5358   19.4630 H     679  UNL679      0.2090
   4075 O          18.3986   21.8185   21.9637 O.3   680  UNL680     -0.3982
   4076 C          18.5123   21.1656   23.2149 C.3   680  UNL680      0.0330
   4077 H          19.1471   20.2823   23.1096 H     680  UNL680      0.0521
   4078 H          17.5196   20.8743   23.5663 H     680  UNL680      0.0521
   4079 H          18.9641   21.8526   23.9343 H     680  UNL680      0.0521
   4080 H          17.9949   21.1849   21.3465 H     680  UNL680      0.2090
   4081 O          18.0328   20.4553   26.3594 O.3   681  UNL681     -0.3982
   4082 C          19.4425   20.3251   26.3751 C.3   681  UNL681      0.0330
   4083 H          19.8775   21.1336   26.9680 H     681  UNL681      0.0521
   4084 H          19.8242   20.3632   25.3519 H     681  UNL681      0.0521
   4085 H          19.7057   19.3646   26.8243 H     681  UNL681      0.0521
   4086 H          17.8299   21.3163   25.9557 H     681  UNL681      0.2090
   4087 O          17.6365   20.5992   31.0024 O.3   682  UNL682     -0.3982
   4088 C          17.6353   20.8873   29.6162 C.3   682  UNL682      0.0330
   4089 H          17.1442   20.0750   29.0747 H     682  UNL682      0.0521
   4090 H          18.6640   21.0031   29.2664 H     682  UNL682      0.0521
   4091 H          17.0884   21.8179   29.4472 H     682  UNL682      0.0521
   4092 H          18.1285   19.7690   31.1212 H     682  UNL682      0.2090
   4093 O          20.6473   19.8141   34.9077 O.3   683  UNL683     -0.3982
   4094 C          20.3896   21.0114   34.1975 C.3   683  UNL683      0.0330
   4095 H          19.4033   21.3939   34.4720 H     683  UNL683      0.0521
   4096 H          20.4299   20.8148   33.1233 H     683  UNL683      0.0521
   4097 H          21.1504   21.7506   34.4592 H     683  UNL683      0.0521
   4098 H          19.9567   19.1778   34.6552 H     683  UNL683      0.2090
   4099 O          18.0097   21.1897   37.4938 O.3   684  UNL684     -0.3982
   4100 C          17.5199   20.5167   36.3485 C.3   684  UNL684      0.0330
   4101 H          16.5178   20.1312   36.5521 H     684  UNL684      0.0521
   4102 H          18.1929   19.6949   36.0921 H     684  UNL684      0.0521
   4103 H          17.4745   21.2212   35.5147 H     684  UNL684      0.0521
   4104 H          18.0388   20.5397   38.2165 H     684  UNL684      0.2090
   4105 O          18.2630   24.5307   -2.1111 O.3   685  UNL685     -0.3982
   4106 C          16.9699   24.8914   -1.6614 C.3   685  UNL685      0.0330
   4107 H          16.7047   25.8731   -2.0616 H     685  UNL685      0.0521
   4108 H          16.9566   24.9157   -0.5691 H     685  UNL685      0.0521
   4109 H          16.2507   24.1494   -2.0159 H     685  UNL685      0.0521
   4110 H          18.8791   25.2069   -1.7813 H     685  UNL685      0.2090
   4111 O          17.5819   24.0467    2.6612 O.3   686  UNL686     -0.3982
   4112 C          17.9910   25.3991    2.5697 C.3   686  UNL686      0.0330
   4113 H          18.6398   25.5264    1.6995 H     686  UNL686      0.0521
   4114 H          18.5251   25.6815    3.4802 H     686  UNL686      0.0521
   4115 H          17.1068   26.0309    2.4577 H     686  UNL686      0.0521
   4116 H          18.3872   23.5107    2.7597 H     686  UNL686      0.2090
   4117 O          20.0879   25.0722    5.8123 O.3   687  UNL687     -0.3982
   4118 C          19.5553   23.8319    5.3849 C.3   687  UNL687      0.0330
   4119 H          20.1594   23.4385    4.5636 H     687  UNL687      0.0521
   4120 H          18.5223   23.9715    5.0572 H     687  UNL687      0.0521
   4121 H          19.5782   23.1285    6.2206 H     687  UNL687      0.0521
   4122 H          20.0545   25.6752    5.0502 H     687  UNL687      0.2090
   4123 O          18.1719   23.8088    8.3158 O.3   688  UNL688     -0.3982
   4124 C          18.6542   24.4681    9.4722 C.3   688  UNL688      0.0330
   4125 H          17.8363   25.0137    9.9494 H     688  UNL688      0.0521
   4126 H          19.4530   25.1591    9.1923 H     688  UNL688      0.0521
   4127 H          19.0471   23.7231   10.1680 H     688  UNL688      0.0521
   4128 H          17.8300   24.4949    7.7175 H     688  UNL688      0.2090
   4129 O          18.0086   25.0923   13.9374 O.3   689  UNL689     -0.3982
   4130 C          17.6239   24.4957   12.7125 C.3   689  UNL689      0.0330
   4131 H          16.8406   23.7561   12.8965 H     689  UNL689      0.0521
   4132 H          18.4910   24.0166   12.2513 H     689  UNL689      0.0521
   4133 H          17.2405   25.2707   12.0447 H     689  UNL689      0.0521
   4134 H          18.3443   24.3807   14.5088 H     689  UNL689      0.2090
   4135 O          20.1545   24.5245   17.6948 O.3   690  UNL690     -0.3982
   4136 C          19.2883   25.3724   16.9633 C.3   690  UNL690      0.0330
   4137 H          18.2692   24.9804   17.0087 H     690  UNL690      0.0521
   4138 H          19.6228   25.4277   15.9245 H     690  UNL690      0.0521
   4139 H          19.3122   26.3713   17.4051 H     690  UNL690      0.0521
   4140 H          20.1123   23.6461   17.2797 H     690  UNL690      0.2090
   4141 O          18.5372   25.1930   20.2745 O.3   691  UNL691     -0.3982
   4142 C          17.4851   24.4836   19.6466 C.3   691  UNL691      0.0330
   4143 H          16.9673   23.8678   20.3862 H     691  UNL691      0.0521
   4144 H          17.8926   23.8530   18.8527 H     691  UNL691      0.0521
   4145 H          16.7817   25.1997   19.2152 H     691  UNL691      0.0521
   4146 H          19.1448   24.5317   20.6476 H     691  UNL691      0.2090
   4147 O          17.3106   24.4199   24.4294 O.3   692  UNL692     -0.3982
   4148 C          17.5153   24.5823   23.0380 C.3   692  UNL692      0.0330
   4149 H          16.8901   23.8719   22.4914 H     692  UNL692      0.0521
   4150 H          18.5688   24.4139   22.8018 H     692  UNL692      0.0521
   4151 H          17.2390   25.6006   22.7547 H     692  UNL692      0.0521
   4152 H          17.5641   23.5076   24.6509 H     692  UNL692      0.2090
   4153 O          20.4638   24.9009   26.2646 O.3   693  UNL693     -0.3982
   4154 C          19.7042   23.7200   26.4462 C.3   693  UNL693      0.0330
   4155 H          18.6477   23.9781   26.5539 H     693  UNL693      0.0521
   4156 H          20.0544   23.1940   27.3377 H     693  UNL693      0.0521
   4157 H          19.8327   23.0769   25.5724 H     693  UNL693      0.0521
   4158 H          20.3300   25.4511   27.0551 H     693  UNL693      0.2090
   4159 O          19.6193   23.7572   29.9737 O.3   694  UNL694     -0.3982
   4160 C          18.2986   24.2080   30.2123 C.3   694  UNL694      0.0330
   4161 H          17.7488   23.4478   30.7728 H     694  UNL694      0.0521
   4162 H          17.8017   24.4037   29.2590 H     694  UNL694      0.0521
   4163 H          18.3382   25.1306   30.7962 H     694  UNL694      0.0521
   4164 H          19.5520   22.9380   29.4541 H     694  UNL694      0.2090
   4165 O          20.6763   25.2069   33.0419 O.3   695  UNL695     -0.3982
   4166 C          19.4203   25.3806   33.6717 C.3   695  UNL695      0.0330
   4167 H          19.1525   24.4684   34.2106 H     695  UNL695      0.0521
   4168 H          18.6621   25.6072   32.9181 H     695  UNL695      0.0521
   4169 H          19.4887   26.2115   34.3777 H     695  UNL695      0.0521
   4170 H          20.5846   24.4636   32.4218 H     695  UNL695      0.2090
   4171 O          18.5308   24.0604   37.2546 O.3   696  UNL696     -0.3982
   4172 C          17.1246   24.0604   37.4187 C.3   696  UNL696      0.0330
   4173 H          16.7856   25.0696   37.6657 H     696  UNL696      0.0521
   4174 H          16.8501   23.3667   38.2172 H     696  UNL696      0.0521
   4175 H          16.6578   23.7401   36.4844 H     696  UNL696      0.0521
   4176 H          18.9171   24.3486   38.0991 H     696  UNL696      0.2090
   4177 O          20.2319   27.3164   -1.1952 O.3   697  UNL697     -0.3982
   4178 C          20.3508   28.7173   -1.0285 C.3   697  UNL697      0.0330
   4179 H          19.3818   29.1900   -1.2070 H     697  UNL697      0.0521
   4180 H          21.0928   29.1069   -1.7297 H     697  UNL697      0.0521
   4181 H          20.6734   28.9274   -0.0061 H     697  UNL697      0.0521
   4182 H          19.9445   27.1610   -2.1111 H     697  UNL697      0.2090
   4183 O          18.9766   29.1880    1.9765 O.3   698  UNL698     -0.3982
   4184 C          18.0950   28.4218    1.1763 C.3   698  UNL698      0.0330
   4185 H          17.2313   28.1177    1.7728 H     698  UNL698      0.0521
   4186 H          18.6182   27.5405    0.7975 H     698  UNL698      0.0521
   4187 H          17.7575   29.0320    0.3352 H     698  UNL698      0.0521
   4188 H          19.2591   28.6207    2.7140 H     698  UNL698      0.2090
   4189 O          17.5466   27.9606    4.3691 O.3   699  UNL699     -0.3982
   4190 C          17.9221   28.7635    5.4731 C.3   699  UNL699      0.0330
   4191 H          18.7685   28.3029    5.9887 H     699  UNL699      0.0521
   4192 H          17.0757   28.8632    6.1569 H     699  UNL699      0.0521
   4193 H          18.2133   29.7522    5.1107 H     699  UNL699      0.0521
   4194 H          17.2936   27.0904    4.7217 H     699  UNL699      0.2090
   4195 O          18.2376   29.1128    8.6814 O.3   700  UNL700     -0.3982
   4196 C          18.0337   27.7119    8.7031 C.3   700  UNL700      0.0330
   4197 H          17.2347   27.4699    9.4083 H     700  UNL700      0.0521
   4198 H          18.9594   27.2127    8.9995 H     700  UNL700      0.0521
   4199 H          17.7471   27.3790    7.7028 H     700  UNL700      0.0521
   4200 H          18.4906   29.3787    9.5818 H     700  UNL700      0.2090
   4201 O          18.7318   27.7819   11.6931 O.3   701  UNL701     -0.3982
   4202 C          17.7601   28.0982   12.6730 C.3   701  UNL701      0.0330
   4203 H          18.0377   27.6382   13.6246 H     701  UNL701      0.0521
   4204 H          16.7828   27.7312   12.3501 H     701  UNL701      0.0521
   4205 H          17.7176   29.1832   12.7940 H     701  UNL701      0.0521
   4206 H          18.7467   26.8134   11.6078 H     701  UNL701      0.2090
   4207 O          18.7427   28.9782   15.7171 O.3   702  UNL702     -0.3982
   4208 C          20.0113   28.7775   16.3127 C.3   702  UNL702      0.0330
   4209 H          19.9260   28.8808   17.3973 H     702  UNL702      0.0521
   4210 H          20.7191   29.5118   15.9206 H     702  UNL702      0.0521
   4211 H          20.3620   27.7714   16.0712 H     702  UNL702      0.0521
   4212 H          18.4575   29.8786   15.9486 H     702  UNL702      0.2090
   4213 O          17.1891   28.6193   20.1069 O.3   703  UNL703     -0.3982
   4214 C          17.7395   28.0290   18.9436 C.3   703  UNL703      0.0330
   4215 H          17.0555   27.2669   18.5621 H     703  UNL703      0.0521
   4216 H          18.7056   27.5790   19.1846 H     703  UNL703      0.0521
   4217 H          17.8795   28.8025   18.1849 H     703  UNL703      0.0521
   4218 H          17.0764   27.9092   20.7616 H     703  UNL703      0.2090
   4219 O          20.0336   28.6193   22.5560 O.3   704  UNL704     -0.3982
   4220 C          19.3632   27.4052   22.8406 C.3   704  UNL704      0.0330
   4221 H          18.2910   27.5315   22.6709 H     704  UNL704      0.0521
   4222 H          19.5475   27.1212   23.8796 H     704  UNL704      0.0521
   4223 H          19.7453   26.6247   22.1786 H     704  UNL704      0.0521
   4224 H          19.6738   29.2924   23.1585 H     704  UNL704      0.2090
   4225 O          17.9929   26.7619   26.6445 O.3   705  UNL705     -0.3982
   4226 C          18.1501   28.1685   26.6073 C.3   705  UNL705      0.0330
   4227 H          17.8685   28.5415   25.6194 H     705  UNL705      0.0521
   4228 H          19.1900   28.4255   26.8227 H     705  UNL705      0.0521
   4229 H          17.5018   28.6185   27.3627 H     705  UNL705      0.0521
   4230 H          18.5799   26.3907   25.9639 H     705  UNL705      0.2090
   4231 O          18.0493   29.0188   30.0453 O.3   706  UNL706     -0.3982
   4232 C          17.6919   27.6501   29.9867 C.3   706  UNL706      0.0330
   4233 H          17.0832   27.4692   29.0973 H     706  UNL706      0.0521
   4234 H          17.1322   27.3800   30.8855 H     706  UNL706      0.0521
   4235 H          18.6015   27.0475   29.9318 H     706  UNL706      0.0521
   4236 H          17.2223   29.5282   30.0934 H     706  UNL706      0.2090
   4237 O          19.0848   29.3014   33.8364 O.3   707  UNL707     -0.3982
   4238 C          17.9932   28.6202   33.2456 C.3   707  UNL707      0.0330
   4239 H          17.3126   28.2736   34.0272 H     707  UNL707      0.0521
   4240 H          18.3632   27.7706   32.6665 H     707  UNL707      0.0521
   4241 H          17.4628   29.3072   32.5820 H     707  UNL707      0.0521
   4242 H          19.5358   28.6669   34.4192 H     707  UNL707      0.2090
   4243 O          17.6239   27.9411   38.2167 O.3   708  UNL708     -0.3982
   4244 C          18.5319   27.2144   37.4093 C.3   708  UNL708      0.0330
   4245 H          19.2970   27.8909   37.0203 H     708  UNL708      0.0521
   4246 H          17.9915   26.7450   36.5837 H     708  UNL708      0.0521
   4247 H          19.0074   26.4410   38.0171 H     708  UNL708      0.0521
   4248 H          17.2179   28.6194   37.6506 H     708  UNL708      0.2090
   4249 O          17.6019   32.1466   -2.0604 O.3   709  UNL709     -0.3982
   4250 C          18.4492   32.1466   -0.9261 C.3   709  UNL709      0.0330
   4251 H          19.2167   31.3776   -1.0435 H     709  UNL709      0.0521
   4252 H          17.8575   31.9519   -0.0283 H     709  UNL709      0.0521
   4253 H          18.9271   33.1252   -0.8396 H     709  UNL709      0.0521
   4254 H          17.1921   31.2662   -2.1109 H     709  UNL709      0.2090
   4255 O          18.9089   32.2007    2.5495 O.3   710  UNL710     -0.3982
   4256 C          17.9917   32.5137    3.5817 C.3   710  UNL710      0.0330
   4257 H          17.6386   31.5910    4.0487 H     710  UNL710      0.0521
   4258 H          17.1484   33.0695    3.1647 H     710  UNL710      0.0521
   4259 H          18.4961   33.1288    4.3306 H     710  UNL710      0.0521
   4260 H          18.4332   31.6549    1.9004 H     710  UNL710      0.2090
   4261 O          21.3147   32.0206    7.0205 O.3   711  UNL711     -0.3982
   4262 C          20.2519   32.1092    6.0894 C.3   711  UNL711      0.0330
   4263 H          19.5809   32.9224    6.3771 H     711  UNL711      0.0521
   4264 H          19.7060   31.1629    6.0670 H     711  UNL711      0.0521
   4265 H          20.6639   32.3132    5.0983 H     711  UNL711      0.0521
   4266 H          20.9185   31.8393    7.8898 H     711  UNL711      0.2090
   4267 O          18.1778   33.1289    8.5681 O.3   712  UNL712     -0.3982
   4268 C          17.6889   32.5533    9.7657 C.3   712  UNL712      0.0330
   4269 H          18.1961   33.0051   10.6218 H     712  UNL712      0.0521
   4270 H          17.8657   31.4750    9.7513 H     712  UNL712      0.0521
   4271 H          16.6155   32.7433    9.8389 H     712  UNL712      0.0521
   4272 H          19.1317   32.9441    8.5309 H     712  UNL712      0.2090
   4273 O          20.4350   32.0561   11.7396 O.3   713  UNL713     -0.3982
   4274 C          19.4234   31.3274   12.4105 C.3   713  UNL713      0.0330
   4275 H          18.6748   32.0194   12.8043 H     713  UNL713      0.0521
   4276 H          19.8677   30.7517   13.2260 H     713  UNL713      0.0521
   4277 H          18.9483   30.6446   11.7022 H     713  UNL713      0.0521
   4278 H          20.8382   32.6529   12.3930 H     713  UNL713      0.2090
   4279 O          18.6203   32.4027   15.4699 O.3   714  UNL714     -0.3982
   4280 C          17.9624   32.5648   16.7130 C.3   714  UNL714      0.0330
   4281 H          17.7392   31.5834   17.1389 H     714  UNL714      0.0521
   4282 H          17.0382   33.1289   16.5663 H     714  UNL714      0.0521
   4283 H          18.6179   33.1141   17.3930 H     714  UNL714      0.0521
   4284 H          18.0149   31.9125   14.8880 H     714  UNL714      0.2090
   4285 O          19.8361   32.4017   19.5861 O.3   715  UNL715     -0.3982
   4286 C          19.5355   31.0228   19.4725 C.3   715  UNL715      0.0330
   4287 H          19.7804   30.5171   20.4098 H     715  UNL715      0.0521
   4288 H          20.1117   30.5899   18.6512 H     715  UNL715      0.0521
   4289 H          18.4688   30.9075   19.2667 H     715  UNL715      0.0521
   4290 H          20.7886   32.4724   19.7684 H     715  UNL715      0.2090
   4291 O          18.4974   32.2007   22.2830 O.3   716  UNL716     -0.3982
   4292 C          17.7062   32.5137   23.4145 C.3   716  UNL716      0.0330
   4293 H          17.4095   31.5910   23.9194 H     716  UNL716      0.0521
   4294 H          16.8202   33.0695   23.0982 H     716  UNL716      0.0521
   4295 H          18.2939   33.1288   24.1000 H     716  UNL716      0.0521
   4296 H          17.9496   31.6549   21.6935 H     716  UNL716      0.2090
   4297 O          19.7372   31.3927   25.6220 O.3   717  UNL717     -0.3982
   4298 C          19.1816   32.2640   26.5897 C.3   717  UNL717      0.0330
   4299 H          19.8365   33.1289   26.7216 H     717  UNL717      0.0521
   4300 H          19.0674   31.7322   27.5374 H     717  UNL717      0.0521
   4301 H          18.2018   32.6012   26.2434 H     717  UNL717      0.0521
   4302 H          20.6053   31.1102   25.9569 H     717  UNL717      0.2090
   4303 O          18.8089   32.2007   30.8567 O.3   718  UNL718     -0.3982
   4304 C          17.8037   32.5137   29.9101 C.3   718  UNL718      0.0330
   4305 H          17.3470   31.5910   29.5436 H     718  UNL718      0.0521
   4306 H          18.2449   33.0695   29.0792 H     718  UNL718      0.0521
   4307 H          17.0405   33.1288   30.3926 H     718  UNL718      0.0521
   4308 H          19.4715   31.6549   30.4000 H     718  UNL718      0.2090
   4309 O          19.0073   32.2025   33.9160 O.3   719  UNL719     -0.3982
   4310 C          17.5915   32.2025   33.9160 C.3   719  UNL719      0.0330
   4311 H          17.2262   32.1138   32.8898 H     719  UNL719      0.0521
   4312 H          17.2263   33.1292   34.3652 H     719  UNL719      0.0521
   4313 H          17.2362   31.3515   34.5018 H     719  UNL719      0.0521
   4314 H          19.2930   32.9681   33.3890 H     719  UNL719      0.2090
   4315 O          18.9042   32.9768   37.2962 O.3   720  UNL720     -0.3982
   4316 C          19.7515   31.8425   37.2962 C.3   720  UNL720      0.0330
   4317 H          19.2033   30.9771   37.6767 H     720  UNL720      0.0521
   4318 H          20.6245   32.0388   37.9234 H     720  UNL720      0.0521
   4319 H          20.0782   31.6431   36.2729 H     720  UNL720      0.0521
   4320 H          18.6306   33.1291   38.2168 H     720  UNL720      0.2090
   4321 O          23.0249    0.9349   -0.3896 O.3   721  UNL721     -0.3982
   4322 C          23.2250   -0.0579   -1.3790 C.3   721  UNL721      0.0330
   4323 H          23.2186   -1.0457   -0.9117 H     721  UNL721      0.0521
   4324 H          24.1806    0.1136   -1.8804 H     721  UNL721      0.0521
   4325 H          22.4161    0.0019   -2.1109 H     721  UNL721      0.0521
   4326 H          23.7574    0.8574    0.2451 H     721  UNL721      0.2090
   4327 O          22.8651   -1.0995    1.7040 O.3   722  UNL722     -0.3982
   4328 C          21.4874   -1.0995    1.3778 C.3   722  UNL722      0.0330
   4329 H          20.9740   -1.8685    1.9604 H     722  UNL722      0.0521
   4330 H          21.3650   -1.2942    0.3096 H     722  UNL722      0.0521
   4331 H          21.0653   -0.1209    1.6182 H     722  UNL722      0.0521
   4332 H          23.2118   -1.9799    1.4798 H     722  UNL722      0.2090
   4333 O          24.9411   -0.1893    5.6094 O.3   723  UNL723     -0.3982
   4334 C          24.2553   -0.9098    4.6019 C.3   723  UNL723      0.0330
   4335 H          24.6551   -0.6377    3.6219 H     723  UNL723      0.0521
   4336 H          23.1885   -0.6781    4.6491 H     723  UNL723      0.0521
   4337 H          24.4012   -1.9796    4.7683 H     723  UNL723      0.0521
   4338 H          24.7933    0.7560    5.4355 H     723  UNL723      0.2090
   4339 O          22.2027   -1.9795    9.7485 O.3   724  UNL724     -0.3982
   4340 C          22.0801   -1.1411    8.6142 C.3   724  UNL724      0.0330
   4341 H          22.8888   -1.3568    7.9115 H     724  UNL724      0.0521
   4342 H          22.1240   -0.0950    8.9269 H     724  UNL724      0.0521
   4343 H          21.1194   -1.3348    8.1314 H     724  UNL724      0.0521
   4344 H          23.0640   -1.7852   10.1557 H     724  UNL724      0.2090
   4345 O          23.1990   -0.4873   12.5642 O.3   725  UNL725     -0.3982
   4346 C          21.8318   -0.8225   12.7149 C.3   725  UNL725      0.0330
   4347 H          21.2156   -0.0874   12.1912 H     725  UNL725      0.0521
   4348 H          21.5747   -0.8390   13.7768 H     725  UNL725      0.0521
   4349 H          21.6590   -1.8119   12.2850 H     725  UNL725      0.0521
   4350 H          23.3217    0.3948   12.9545 H     725  UNL725      0.2090
   4351 O          23.1864   -1.4125   16.7905 O.3   726  UNL726     -0.3982
   4352 C          23.8619   -1.4125   15.5462 C.3   726  UNL726      0.0330
   4353 H          24.7920   -1.9793   15.6355 H     726  UNL726      0.0521
   4354 H          24.0769   -0.3837   15.2474 H     726  UNL726      0.0521
   4355 H          23.2225   -1.8818   14.7948 H     726  UNL726      0.0521
   4356 H          23.7779   -0.9904   17.4366 H     726  UNL726      0.2090
   4357 O          23.3024   -0.1041   19.6840 O.3   727  UNL727     -0.3982
   4358 C          21.8866   -0.1064   19.6843 C.3   727  UNL727      0.0330
   4359 H          21.5223   -0.5895   20.5943 H     727  UNL727      0.0521
   4360 H          21.5221   -0.6413   18.8039 H     727  UNL727      0.0521
   4361 H          21.5297    0.9258   19.6544 H     727  UNL727      0.0521
   4362 H          23.5896   -1.0328   19.7109 H     727  UNL727      0.2090
   4363 O          24.0147   -1.4125   23.8352 O.3   728  UNL728     -0.3982
   4364 C          24.2194   -1.4125   22.4343 C.3   728  UNL728      0.0330
   4365 H          25.1232   -1.9793   22.1972 H     728  UNL728      0.0521
   4366 H          24.3182   -0.3837   22.0796 H     728  UNL728      0.0521
   4367 H          23.3601   -1.8818   21.9496 H     728  UNL728      0.0521
   4368 H          24.7927   -0.9904   24.2376 H     728  UNL728      0.2090
   4369 O          24.1708   -0.3548   26.7002 O.3   729  UNL729     -0.3982
   4370 C          22.7550   -0.3548   26.7002 C.3   729  UNL729      0.0330
   4371 H          22.3897   -1.1238   27.3854 H     729  UNL729      0.0521
   4372 H          22.3898   -0.5495   25.6889 H     729  UNL729      0.0521
   4373 H          22.3997    0.6238   27.0314 H     729  UNL729      0.0521
   4374 H          24.4565   -1.2352   26.4022 H     729  UNL729      0.2090
   4375 O          24.2012   -1.4125   30.8977 O.3   730  UNL730     -0.3982
   4376 C          24.8767   -1.4125   29.6534 C.3   730  UNL730      0.0330
   4377 H          25.8068   -1.9793   29.7427 H     730  UNL730      0.0521
   4378 H          25.0917   -0.3837   29.3546 H     730  UNL730      0.0521
   4379 H          24.2373   -1.8818   28.9021 H     730  UNL730      0.0521
   4380 H          24.7926   -0.9904   31.5439 H     730  UNL730      0.2090
   4381 O          23.3658   -1.0098   33.7408 O.3   731  UNL731     -0.3982
   4382 C          21.9596   -1.1740   33.7408 C.3   731  UNL731      0.0330
   4383 H          21.6859   -1.9802   34.4260 H     731  UNL731      0.0521
   4384 H          21.6194   -1.4097   32.7295 H     731  UNL731      0.0521
   4385 H          21.4932   -0.2432   34.0720 H     731  UNL731      0.0521
   4386 H          23.7517   -1.8511   33.4428 H     731  UNL731      0.2090
   4387 O          24.5731   -1.1361   37.4228 O.3   732  UNL732     -0.3982
   4388 C          23.1668   -1.1361   37.5870 C.3   732  UNL732      0.0330
   4389 H          22.8726   -1.9794   38.2168 H     732  UNL732      0.0521
   4390 H          22.6850   -1.2122   36.6092 H     732  UNL732      0.0521
   4391 H          22.8652   -0.2025   38.0677 H     732  UNL732      0.0521
   4392 H          24.8107   -1.9760   36.9943 H     732  UNL732      0.2090
   4393 O          25.6660    4.1359   -2.1106 O.3   733  UNL733     -0.3982
   4394 C          24.8202    3.3438   -1.2972 C.3   733  UNL733      0.0330
   4395 H          24.1005    3.9863   -0.7840 H     733  UNL733      0.0521
   4396 H          25.4225    2.7976   -0.5671 H     733  UNL733      0.0521
   4397 H          24.2840    2.6320   -1.9293 H     733  UNL733      0.0521
   4398 H          26.1281    4.7572   -1.5225 H     733  UNL733      0.2090
   4399 O          24.8126    4.4879    3.8827 O.3   734  UNL734     -0.3982
   4400 C          24.8706    3.3265    3.0750 C.3   734  UNL734      0.0330
   4401 H          25.8294    2.8242    3.2257 H     734  UNL734      0.0521
   4402 H          24.7545    3.6058    2.0250 H     734  UNL734      0.0521
   4403 H          24.0597    2.6531    3.3623 H     734  UNL734      0.0521
   4404 H          25.5434    5.0659    3.6048 H     734  UNL734      0.2090
   4405 O          23.4685    3.1007    6.4181 O.3   735  UNL735     -0.3982
   4406 C          22.0761    2.8611    6.3270 C.3   735  UNL735      0.0330
   4407 H          21.8950    1.7865    6.2443 H     735  UNL735      0.0521
   4408 H          21.6730    3.3777    5.4525 H     735  UNL735      0.0521
   4409 H          21.5903    3.2419    7.2284 H     735  UNL735      0.0521
   4410 H          23.8721    2.7524    5.6049 H     735  UNL735      0.2090
   4411 O          25.3563    2.9022    9.9443 O.3   736  UNL736     -0.3982
   4412 C          24.1308    2.3930    9.4511 C.3   736  UNL736      0.0330
   4413 H          24.3159    1.8074    8.5472 H     736  UNL736      0.0521
   4414 H          23.4540    3.2217    9.2290 H     736  UNL736      0.0521
   4415 H          23.6805    1.7517   10.2123 H     736  UNL736      0.0521
   4416 H          25.7320    3.4671    9.2476 H     736  UNL736      0.2090
   4417 O          23.5706    3.4692   12.7416 O.3   737  UNL737     -0.3982
   4418 C          22.2013    3.3728   13.0882 C.3   737  UNL737      0.0330
   4419 H          21.7055    2.6610   12.4235 H     737  UNL737      0.0521
   4420 H          21.7325    4.3560   13.0014 H     737  UNL737      0.0521
   4421 H          22.1196    3.0225   14.1198 H     737  UNL737      0.0521
   4422 H          23.6112    3.7822   11.8219 H     737  UNL737      0.2090
   4423 O          24.3805    1.6814   17.2491 O.3   738  UNL738     -0.3982
   4424 C          23.3017    1.9977   16.3885 C.3   738  UNL738      0.0330
   4425 H          22.5796    1.1774   16.3912 H     738  UNL738      0.0521
   4426 H          23.6783    2.1624   15.3760 H     738  UNL738      0.0521
   4427 H          22.8164    2.9086   16.7470 H     738  UNL738      0.0521
   4428 H          24.7912    0.8696   16.9059 H     738  UNL738      0.2090
   4429 O          22.9908    3.0918   19.5376 O.3   739  UNL739     -0.3982
   4430 C          24.2571    3.2377   20.1538 C.3   739  UNL739      0.0330
   4431 H          24.1992    2.9010   21.1919 H     739  UNL739      0.0521
   4432 H          24.5630    4.2860   20.1161 H     739  UNL739      0.0521
   4433 H          24.9866    2.6280   19.6155 H     739  UNL739      0.0521
   4434 H          22.3650    3.6438   20.0367 H     739  UNL739      0.2090
   4435 O          25.1535    1.7786   23.7600 O.3   740  UNL740     -0.3982
   4436 C          23.7377    1.7786   23.7600 C.3   740  UNL740      0.0330
   4437 H          23.3724    1.0096   24.4452 H     740  UNL740      0.0521
   4438 H          23.3725    1.5839   22.7487 H     740  UNL740      0.0521
   4439 H          23.3824    2.7572   24.0912 H     740  UNL740      0.0521
   4440 H          25.4392    0.8982   23.4620 H     740  UNL740      0.2090
   4441 O          23.0720    3.3565   26.6262 O.3   741  UNL741     -0.3982
   4442 C          21.6562    3.3565   26.6262 C.3   741  UNL741      0.0330
   4443 H          21.2909    2.5875   27.3114 H     741  UNL741      0.0521
   4444 H          21.2910    3.1618   25.6149 H     741  UNL741      0.0521
   4445 H          21.3009    4.3351   26.9574 H     741  UNL741      0.0521
   4446 H          23.3577    2.4761   26.3282 H     741  UNL741      0.2090
   4447 O          25.0822    2.9000   29.3204 O.3   742  UNL742     -0.3982
   4448 C          24.7294    2.8110   30.6886 C.3   742  UNL742      0.0330
   4449 H          24.4742    1.7770   30.9336 H     742  UNL742      0.0521
   4450 H          23.8774    3.4651   30.8894 H     742  UNL742      0.0521
   4451 H          25.5803    3.1278   31.2963 H     742  UNL742      0.0521
   4452 H          24.3082    2.6128   28.8065 H     742  UNL742      0.2090
   4453 O          24.5063    3.4374   33.7662 O.3   743  UNL743     -0.3982
   4454 C          23.0905    3.4374   33.7662 C.3   743  UNL743      0.0330
   4455 H          22.7252    2.6684   34.4514 H     743  UNL743      0.0521
   4456 H          22.7253    3.2427   32.7549 H     743  UNL743      0.0521
   4457 H          22.7352    4.4160   34.0974 H     743  UNL743      0.0521
   4458 H          24.7920    2.5570   33.4682 H     743  UNL743      0.2090
   4459 O          24.3528    2.2571   37.6456 O.3   744  UNL744     -0.3982
   4460 C          23.0219    2.7397   37.6647 C.3   744  UNL744      0.0330
   4461 H          22.3759    2.0105   38.1599 H     744  UNL744      0.0521
   4462 H          22.6802    2.9091   36.6407 H     744  UNL744      0.0521
   4463 H          22.9936    3.6823   38.2165 H     744  UNL744      0.0521
   4464 H          24.3463    1.4207   37.1496 H     744  UNL744      0.2090
   4465 O          25.4678    7.4323    0.2684 O.3   745  UNL745     -0.3982
   4466 C          24.4123    6.5708   -0.1167 C.3   745  UNL745      0.0330
   4467 H          23.4646    7.1135   -0.0760 H     745  UNL745      0.0521
   4468 H          24.3803    5.7095    0.5550 H     745  UNL745      0.0521
   4469 H          24.5891    6.2269   -1.1385 H     745  UNL745      0.0521
   4470 H          25.2834    7.7210    1.1784 H     745  UNL745      0.2090
   4471 O          22.7913    7.7001    2.6779 O.3   746  UNL746     -0.3982
   4472 C          21.6010    7.1925    3.2523 C.3   746  UNL746      0.0330
   4473 H          21.8409    6.3493    3.9048 H     746  UNL746      0.0521
   4474 H          20.9209    6.8715    2.4595 H     746  UNL746      0.0521
   4475 H          21.1255    7.9814    3.8399 H     746  UNL746      0.0521
   4476 H          23.1905    6.9783    2.1630 H     746  UNL746      0.2090
   4477 O          24.8096    6.4671    6.5362 O.3   747  UNL747     -0.3982
   4478 C          23.4129    6.3073    6.7037 C.3   747  UNL747      0.0330
   4479 H          23.2206    5.5206    7.4374 H     747  UNL747      0.0521
   4480 H          22.9577    6.0457    5.7454 H     747  UNL747      0.0521
   4481 H          22.9880    7.2481    7.0616 H     747  UNL747      0.0521
   4482 H          25.1584    5.6169    6.2182 H     747  UNL747      0.2090
   4483 O          23.6073    6.7335    9.8079 O.3   748  UNL748     -0.3982
   4484 C          22.1915    6.7335    9.8079 C.3   748  UNL748      0.0330
   4485 H          21.8262    5.9645   10.4931 H     748  UNL748      0.0521
   4486 H          21.8263    6.5388    8.7966 H     748  UNL748      0.0521
   4487 H          21.8362    7.7121   10.1391 H     748  UNL748      0.0521
   4488 H          23.8930    5.8531    9.5099 H     748  UNL748      0.2090
   4489 O          25.2659    6.0186   12.3443 O.3   749  UNL749     -0.3982
   4490 C          24.5483    6.4425   13.4887 C.3   749  UNL749      0.0330
   4491 H          23.6777    7.0259   13.1787 H     749  UNL749      0.0521
   4492 H          25.1988    7.0485   14.1240 H     749  UNL749      0.0521
   4493 H          24.2155    5.5632   14.0453 H     749  UNL749      0.0521
   4494 H          25.5481    6.8198   11.8710 H     749  UNL749      0.2090
   4495 O          24.1777    6.5032   16.6847 O.3   750  UNL750     -0.3982
   4496 C          22.8654    5.9924   16.5383 C.3   750  UNL750      0.0330
   4497 H          22.7053    5.1852   17.2574 H     750  UNL750      0.0521
   4498 H          22.7300    5.6198   15.5200 H     750  UNL750      0.0521
   4499 H          22.1485    6.7945   16.7286 H     750  UNL750      0.0521
   4500 H          24.7911    5.7693   16.5099 H     750  UNL750      0.2090
   4501 O          24.2863    7.2673   19.5939 O.3   751  UNL751     -0.3982
   4502 C          22.8801    7.4304   19.5748 C.3   751  UNL751      0.0330
   4503 H          22.6134    8.2196   18.8675 H     751  UNL751      0.0521
   4504 H          22.5290    7.6902   20.5764 H     751  UNL751      0.0521
   4505 H          22.4178    6.4915   19.2612 H     751  UNL751      0.0521
   4506 H          24.6686    8.1159   19.8756 H     751  UNL751      0.2090
   4507 O          22.2692    5.1969   23.4254 O.3   752  UNL752     -0.3982
   4508 C          23.6258    5.3458   23.0485 C.3   752  UNL752      0.0330
   4509 H          24.0347    4.3731   22.7641 H     752  UNL752      0.0521
   4510 H          24.1935    5.7614   23.8845 H     752  UNL752      0.0521
   4511 H          23.6851    6.0269   22.1963 H     752  UNL752      0.0521
   4512 H          22.2483    4.5878   24.1830 H     752  UNL752      0.2090
   4513 O          23.3928    6.7180   26.9393 O.3   753  UNL753     -0.3982
   4514 C          24.7930    6.5869   26.7758 C.3   753  UNL753      0.0330
   4515 H          25.0434    6.6414   25.7135 H     753  UNL753      0.0521
   4516 H          25.1210    5.6303   27.1898 H     753  UNL753      0.0521
   4517 H          25.2906    7.4013   27.3075 H     753  UNL753      0.0521
   4518 H          22.9787    5.9821   26.4571 H     753  UNL753      0.2090
   4519 O          23.5402    6.5055   30.3917 O.3   754  UNL754     -0.3982
   4520 C          22.2999    5.8400   30.2383 C.3   754  UNL754      0.0330
   4521 H          22.2699    4.9673   30.8954 H     754  UNL754      0.0521
   4522 H          22.1780    5.5302   29.1975 H     754  UNL754      0.0521
   4523 H          21.4932    6.5252   30.5090 H     754  UNL754      0.0521
   4524 H          24.2362    5.8731   30.1444 H     754  UNL754      0.2090
   4525 O          22.6495    6.9008   33.2711 O.3   755  UNL755     -0.3982
   4526 C          21.2337    6.9008   33.2711 C.3   755  UNL755      0.0330
   4527 H          20.8684    7.8678   32.9164 H     755  UNL755      0.0521
   4528 H          20.8685    6.7103   34.2832 H     755  UNL755      0.0521
   4529 H          20.8784    6.1123   32.6036 H     755  UNL755      0.0521
   4530 H          22.9352    7.6102   33.8718 H     755  UNL755      0.2090
   4531 O          22.6170    6.1936   38.2172 O.3   756  UNL756     -0.3982
   4532 C          23.9402    6.2657   37.7187 C.3   756  UNL756      0.0330
   4533 H          24.4511    7.1243   38.1615 H     756  UNL756      0.0521
   4534 H          23.9157    6.3641   36.6307 H     756  UNL756      0.0521
   4535 H          24.4715    5.3498   37.9876 H     756  UNL756      0.0521
   4536 H          22.1707    7.0193   37.9633 H     756  UNL756      0.2090
   4537 O          23.8766    9.2402   -1.4882 O.3   757  UNL757     -0.3982
   4538 C          22.6578    9.8868   -1.1708 C.3   757  UNL757      0.0330
   4539 H          21.9747    9.1712   -0.7065 H     757  UNL757      0.0521
   4540 H          22.2122   10.2937   -2.0818 H     757  UNL757      0.0521
   4541 H          22.8594   10.7014   -0.4712 H     757  UNL757      0.0521
   4542 H          23.6660    8.5229   -2.1100 H     757  UNL757      0.2090
   4543 O          23.0187   10.7979    2.3272 O.3   758  UNL758     -0.3982
   4544 C          21.6502   10.4951    2.1265 C.3   758  UNL758      0.0330
   4545 H          21.1315   11.3806    1.7508 H     758  UNL758      0.0521
   4546 H          21.2053   10.1724    3.0709 H     758  UNL758      0.0521
   4547 H          21.5684    9.6892    1.3935 H     758  UNL758      0.0521
   4548 H          23.0595   11.5157    2.9819 H     758  UNL758      0.2090
   4549 O          25.0962    9.8941    4.7011 O.3   759  UNL759     -0.3982
   4550 C          24.0373    9.8425    5.6394 C.3   759  UNL759      0.0330
   4551 H          23.3063   10.6214    5.4084 H     759  UNL759      0.0521
   4552 H          24.4346    9.9881    6.6469 H     759  UNL759      0.0521
   4553 H          23.5555    8.8639    5.5780 H     759  UNL759      0.0521
   4554 H          25.5043   10.7733    4.7788 H     759  UNL759      0.2090
   4555 O          23.6033   10.7535    9.3842 O.3   760  UNL760     -0.3982
   4556 C          22.2058   10.6528    9.5876 C.3   760  UNL760      0.0330
   4557 H          21.9994    9.8749   10.3270 H     760  UNL760      0.0521
   4558 H          21.7156   10.4105    8.6416 H     760  UNL760      0.0521
   4559 H          21.8303   11.6106    9.9552 H     760  UNL760      0.0521
   4560 H          23.9076    9.8894    9.0584 H     760  UNL760      0.2090
   4561 O          24.9467   10.9510   13.0220 O.3   761  UNL761     -0.3982
   4562 C          24.3669    9.7399   12.5730 C.3   761  UNL761      0.0330
   4563 H          25.1090    9.1650   12.0134 H     761  UNL761      0.0521
   4564 H          23.5062    9.9607   11.9371 H     761  UNL761      0.0521
   4565 H          24.0382    9.1608   13.4392 H     761  UNL761      0.0521
   4566 H          25.2286   11.4429   12.2319 H     761  UNL761      0.2090
   4567 O          23.2460    9.4700   16.1307 O.3   762  UNL762     -0.3982
   4568 C          22.2344   10.4569   16.0463 C.3   762  UNL762      0.0330
   4569 H          22.1029   10.9297   17.0228 H     762  UNL762      0.0521
   4570 H          21.2983    9.9939   15.7248 H     762  UNL762      0.0521
   4571 H          22.5346   11.2119   15.3159 H     762  UNL762      0.0521
   4572 H          22.9516    8.8145   16.7858 H     762  UNL762      0.2090
   4573 O          23.8757   10.5428   18.9077 O.3   763  UNL763     -0.3982
   4574 C          24.9333   10.9332   19.7641 C.3   763  UNL763      0.0330
   4575 H          25.8503   11.0521   19.1815 H     763  UNL763      0.0521
   4576 H          25.0761   10.1745   20.5375 H     763  UNL763      0.0521
   4577 H          24.6768   11.8856   20.2341 H     763  UNL763      0.0521
   4578 H          24.1318    9.6953   18.5055 H     763  UNL763      0.2090
   4579 O          23.7510    8.5277   22.9405 O.3   764  UNL764     -0.3982
   4580 C          22.3827    8.3646   23.2656 C.3   764  UNL764      0.0330
   4581 H          21.9484    7.5834   22.6367 H     764  UNL764      0.0521
   4582 H          21.8551    9.3086   23.1089 H     764  UNL764      0.0521
   4583 H          22.2992    8.0729   24.3151 H     764  UNL764      0.0521
   4584 H          23.7933    8.7863   22.0041 H     764  UNL764      0.2090
   4585 O          23.8546    9.7676   25.9211 O.3   765  UNL765     -0.3982
   4586 C          22.5330    9.9219   26.4049 C.3   765  UNL765      0.0330
   4587 H          22.3354    9.1708   27.1736 H     765  UNL765      0.0521
   4588 H          21.8263    9.8084   25.5792 H     765  UNL765      0.0521
   4589 H          22.4273   10.9195   26.8375 H     765  UNL765      0.0521
   4590 H          23.9181    8.8738   25.5434 H     765  UNL765      0.2090
   4591 O          22.4625    9.4513   29.9569 O.3   766  UNL766     -0.3982
   4592 C          21.4395   10.3329   29.5318 C.3   766  UNL766      0.0330
   4593 H          20.7912   10.5752   30.3776 H     766  UNL766      0.0521
   4594 H          20.8576    9.8607   28.7366 H     766  UNL766      0.0521
   4595 H          21.8959   11.2496   29.1510 H     766  UNL766      0.0521
   4596 H          22.0273    8.6478   30.2893 H     766  UNL766      0.2090
   4597 O          25.0885    9.6449   33.1774 O.3   767  UNL767     -0.3982
   4598 C          23.9778   10.3030   33.7587 C.3   767  UNL767      0.0330
   4599 H          24.0953   10.3278   34.8449 H     767  UNL767      0.0521
   4600 H          23.0595    9.7737   33.4928 H     767  UNL767      0.0521
   4601 H          23.9303   11.3252   33.3761 H     767  UNL767      0.0521
   4602 H          25.1045    8.7410   33.5355 H     767  UNL767      0.2090
   4603 O          23.1911   10.4857   37.8304 O.3   768  UNL768     -0.3982
   4604 C          21.7856   10.5418   37.6694 C.3   768  UNL768      0.0330
   4605 H          21.3220    9.7178   38.2174 H     768  UNL768      0.0521
   4606 H          21.5367   10.4731   36.6077 H     768  UNL768      0.0521
   4607 H          21.4202   11.4918   38.0663 H     768  UNL768      0.0521
   4608 H          23.4862    9.6324   37.4694 H     768  UNL768      0.2090
   4609 O          25.0432   12.5483   -1.1340 O.3   769  UNL769     -0.3982
   4610 C          24.8299   12.5483    0.2656 C.3   769  UNL769      0.0330
   4611 H          25.4522   11.7793    0.7300 H     769  UNL769      0.0521
   4612 H          23.7751   12.3536    0.4743 H     769  UNL769      0.0521
   4613 H          25.1038   13.5269    0.6668 H     769  UNL769      0.0521
   4614 H          24.7917   11.6679   -1.4613 H     769  UNL769      0.2090
   4615 O          23.2393   14.6024    2.7734 O.3   770  UNL770     -0.3982
   4616 C          21.8751   14.2262    2.8163 C.3   770  UNL770      0.0330
   4617 H          21.7756   13.2715    3.3387 H     770  UNL770      0.0521
   4618 H          21.4883   14.1385    1.7981 H     770  UNL770      0.0521
   4619 H          21.3117   14.9931    3.3529 H     770  UNL770      0.0521
   4620 H          23.7134   13.9034    2.2916 H     770  UNL770      0.2090
   4621 O          25.1439   13.4537    7.0517 O.3   771  UNL771     -0.3982
   4622 C          24.3611   13.6095    5.8823 C.3   771  UNL771      0.0330
   4623 H          23.4062   14.0739    6.1411 H     771  UNL771      0.0521
   4624 H          24.1908   12.6324    5.4238 H     771  UNL771      0.0521
   4625 H          24.8969   14.2511    5.1789 H     771  UNL771      0.0521
   4626 H          24.6430   12.8801    7.6564 H     771  UNL771      0.2090
   4627 O          24.9108   14.0956   10.0121 O.3   772  UNL772     -0.3982
   4628 C          23.5045   13.9314   10.0121 C.3   772  UNL772      0.0330
   4629 H          23.1520   13.8009    8.9860 H     772  UNL772      0.0521
   4630 H          23.0343   14.8095   10.4614 H     772  UNL772      0.0521
   4631 H          23.2503   13.0449   10.5979 H     772  UNL772      0.0521
   4632 H          25.1058   14.8892    9.4851 H     772  UNL772      0.2090
   4633 O          23.3698   14.1025   13.0294 O.3   773  UNL773     -0.3982
   4634 C          21.9540   14.1025   13.0294 C.3   773  UNL773      0.0330
   4635 H          21.5887   13.3335   13.7146 H     773  UNL773      0.0521
   4636 H          21.5888   13.9078   12.0181 H     773  UNL773      0.0521
   4637 H          21.5987   15.0811   13.3606 H     773  UNL773      0.0521
   4638 H          23.6555   13.2221   12.7314 H     773  UNL773      0.2090
   4639 O          25.2579   14.0821   17.0583 O.3   774  UNL774     -0.3982
   4640 C          24.0095   13.4350   17.2235 C.3   774  UNL774      0.0330
   4641 H          23.2343   13.9967   16.6964 H     774  UNL774      0.0521
   4642 H          23.7689   13.3717   18.2875 H     774  UNL774      0.0521
   4643 H          24.0737   12.4273   16.8061 H     774  UNL774      0.0521
   4644 H          25.1703   14.9731   17.4378 H     774  UNL774      0.2090
   4645 O          21.7296   12.9086   20.6308 O.3   775  UNL775     -0.3982
   4646 C          21.5376   13.9357   19.6755 C.3   775  UNL775      0.0330
   4647 H          21.4616   13.4969   18.6776 H     775  UNL775      0.0521
   4648 H          22.3777   14.6333   19.7155 H     775  UNL775      0.0521
   4649 H          20.6128   14.4689   19.9081 H     775  UNL775      0.0521
   4650 H          22.5570   12.4536   20.3987 H     775  UNL775      0.2090
   4651 O          24.8913   11.6191   23.0918 O.3   776  UNL776     -0.3982
   4652 C          23.4850   11.6191   22.9276 C.3   776  UNL776      0.0330
   4653 H          23.2289   11.1559   21.9715 H     776  UNL776      0.0521
   4654 H          23.1138   12.6464   22.9580 H     776  UNL776      0.0521
   4655 H          23.0324   11.0463   23.7404 H     776  UNL776      0.0521
   4656 H          25.2648   12.1345   22.3566 H     776  UNL776      0.2090
   4657 O          23.4525   13.2789   26.1857 O.3   777  UNL777     -0.3982
   4658 C          22.1505   13.6904   26.5599 C.3   777  UNL777      0.0330
   4659 H          22.2074   14.3106   27.4579 H     777  UNL777      0.0521
   4660 H          21.5302   12.8112   26.7501 H     777  UNL777      0.0521
   4661 H          21.7139   14.2723   25.7449 H     777  UNL777      0.0521
   4662 H          23.8141   12.7651   26.9279 H     777  UNL777      0.2090
   4663 O          24.1050   12.2828   29.5608 O.3   778  UNL778     -0.3982
   4664 C          23.3906   13.3560   30.1460 C.3   778  UNL778      0.0330
   4665 H          23.3513   14.1938   29.4453 H     778  UNL778      0.0521
   4666 H          23.8855   13.6632   31.0705 H     778  UNL778      0.0521
   4667 H          22.3743   13.0249   30.3720 H     778  UNL778      0.0521
   4668 H          25.0022   12.6064   29.3715 H     778  UNL778      0.2090
   4669 O          24.0807   13.8902   33.9411 O.3   779  UNL779     -0.3982
   4670 C          22.6745   13.8902   33.7769 C.3   779  UNL779      0.0330
   4671 H          22.4307   13.8015   32.7153 H     779  UNL779      0.0521
   4672 H          22.2596   14.8169   34.1807 H     779  UNL779      0.0521
   4673 H          22.2536   13.0392   34.3175 H     779  UNL779      0.0521
   4674 H          24.4256   14.6558   33.4508 H     779  UNL779      0.2090
   4675 O          22.6024   13.4938   36.8579 O.3   780  UNL780     -0.3982
   4676 C          21.2247   13.8200   36.8579 C.3   780  UNL780      0.0330
   4677 H          21.0310   14.5875   36.1044 H     780  UNL780      0.0521
   4678 H          20.9355   14.1839   37.8468 H     780  UNL780      0.0521
   4679 H          20.6474   12.9238   36.6188 H     780  UNL780      0.0521
   4680 H          23.0887   14.3079   37.0731 H     780  UNL780      0.2090
   4681 O          23.0021   15.5329   -1.0995 O.3   781  UNL781     -0.3982
   4682 C          24.3587   15.9381   -1.0995 C.3   781  UNL781      0.0330
   4683 H          24.4886   16.7795   -0.4143 H     781  UNL781      0.0521
   4684 H          24.6529   16.2292   -2.1108 H     781  UNL781      0.0521
   4685 H          24.9792   15.1021   -0.7683 H     781  UNL781      0.0521
   4686 H          22.4764   16.2947   -1.3975 H     781  UNL781      0.2090
   4687 O          20.9355   18.1461    1.1479 O.3   782  UNL782     -0.3982
   4688 C          22.2921   17.7409    1.1479 C.3   782  UNL782      0.0330
   4689 H          22.8622   18.3732    1.8331 H     782  UNL782      0.0521
   4690 H          22.6977   17.8229    0.1366 H     782  UNL782      0.0521
   4691 H          22.3524   16.7015    1.4791 H     782  UNL782      0.0521
   4692 H          20.9137   19.0714    0.8499 H     782  UNL782      0.2090
   4693 O          23.3368   17.6125    4.2887 O.3   783  UNL783     -0.3982
   4694 C          21.9305   17.5937    4.4518 C.3   783  UNL783      0.0330
   4695 H          21.6728   17.0004    5.3327 H     783  UNL783      0.0521
   4696 H          21.4653   17.1643    3.5612 H     783  UNL783      0.0521
   4697 H          21.5749   18.6177    4.5881 H     783  UNL783      0.0521
   4698 H          23.6229   16.6908    4.1700 H     783  UNL783      0.2090
   4699 O          24.3873   17.2983    8.0891 O.3   784  UNL784     -0.3982
   4700 C          23.3162   16.6038    7.4769 C.3   784  UNL784      0.0330
   4701 H          23.6315   16.2364    6.4972 H     784  UNL784      0.0521
   4702 H          22.4605   17.2746    7.3682 H     784  UNL784      0.0521
   4703 H          23.0348   15.7573    8.1077 H     784  UNL784      0.0521
   4704 H          24.6146   18.0432    7.5069 H     784  UNL784      0.2090
   4705 O          23.0069   17.8783   13.2249 O.3   785  UNL785     -0.3982
   4706 C          21.5911   17.8783   13.2249 C.3   785  UNL785      0.0330
   4707 H          21.2258   17.2878   14.0688 H     785  UNL785      0.0521
   4708 H          21.2259   17.4558   12.2857 H     785  UNL785      0.0521
   4709 H          21.2358   18.9068   13.3218 H     785  UNL785      0.0521
   4710 H          23.2926   16.9529   13.1378 H     785  UNL785      0.2090
   4711 O          25.0890   17.1173   15.7961 O.3   786  UNL786     -0.3982
   4712 C          23.7351   16.7637   16.0122 C.3   786  UNL786      0.0330
   4713 H          23.6468   16.2136   16.9524 H     786  UNL786      0.0521
   4714 H          23.3818   16.1470   15.1823 H     786  UNL786      0.0521
   4715 H          23.1346   17.6747   16.0678 H     786  UNL786      0.0521
   4716 H          25.5968   16.2893   15.7513 H     786  UNL786      0.2090
   4717 O          23.8024   17.6095   19.9640 O.3   787  UNL787     -0.3982
   4718 C          22.3961   17.4464   19.9828 C.3   787  UNL787      0.0330
   4719 H          22.1384   16.5662   20.5770 H     787  UNL787      0.0521
   4720 H          22.0283   17.3296   18.9605 H     787  UNL787      0.0521
   4721 H          21.9416   18.3325   20.4321 H     787  UNL787      0.0521
   4722 H          24.1775   16.8085   19.5602 H     787  UNL787      0.2090
   4723 O          24.0274   15.2121   21.8141 O.3   788  UNL788     -0.3982
   4724 C          24.0103   15.6665   23.1549 C.3   788  UNL788      0.0330
   4725 H          24.3263   14.8580   23.8187 H     788  UNL788      0.0521
   4726 H          23.0012   15.9939   23.4167 H     788  UNL788      0.0521
   4727 H          24.7008   16.5073   23.2539 H     788  UNL788      0.0521
   4728 H          23.4057   14.4666   21.7571 H     788  UNL788      0.2090
   4729 O          24.0131   17.4573   26.6253 O.3   789  UNL789     -0.3982
   4730 C          22.7112   16.9503   26.3957 C.3   789  UNL789      0.0330
   4731 H          22.3309   16.4919   27.3119 H     789  UNL789      0.0521
   4732 H          22.7438   16.2108   25.5919 H     789  UNL789      0.0521
   4733 H          22.0556   17.7740   26.1036 H     789  UNL789      0.0521
   4734 H          24.5717   16.7041   26.8825 H     789  UNL789      0.2090
   4735 O          24.8211   17.0747   29.4984 O.3   790  UNL790     -0.3982
   4736 C          23.7684   17.6230   30.2701 C.3   790  UNL790      0.0330
   4737 H          23.4141   16.8776   30.9865 H     790  UNL790      0.0521
   4738 H          22.9520   17.9268   29.6104 H     790  UNL790      0.0521
   4739 H          24.1414   18.4961   30.8105 H     790  UNL790      0.0521
   4740 H          24.4603   16.3023   29.0306 H     790  UNL790      0.2090
   4741 O          22.3744   17.6795   33.1944 O.3   791  UNL791     -0.3982
   4742 C          21.0455   17.3659   32.8200 C.3   791  UNL791      0.0330
   4743 H          20.4662   17.1085   33.7102 H     791  UNL791      0.0521
   4744 H          21.0516   16.5261   32.1209 H     791  UNL791      0.0521
   4745 H          20.5977   18.2369   32.3359 H     791  UNL791      0.0521
   4746 H          22.7453   16.8884   33.6210 H     791  UNL791      0.2090
   4747 O          24.9469   17.0041   37.6304 O.3   792  UNL792     -0.3982
   4748 C          23.5311   17.0041   37.6304 C.3   792  UNL792      0.0330
   4749 H          23.1658   16.9154   36.6043 H     792  UNL792      0.0521
   4750 H          23.1659   17.9308   38.0797 H     792  UNL792      0.0521
   4751 H          23.1758   16.1531   38.2162 H     792  UNL792      0.0521
   4752 H          25.2326   17.7697   37.1034 H     792  UNL792      0.2090
   4753 O          24.3435   19.2293   -1.3311 O.3   793  UNL793     -0.3982
   4754 C          24.8952   20.4393   -0.8453 C.3   793  UNL793      0.0330
   4755 H          24.1032   21.0526   -0.4085 H     793  UNL793      0.0521
   4756 H          25.3762   20.9768   -1.6662 H     793  UNL793      0.0521
   4757 H          25.6388   20.2083   -0.0789 H     793  UNL793      0.0521
   4758 H          23.6878   19.4662   -2.0090 H     793  UNL793      0.2090
   4759 O          22.6740   21.1395    3.1915 O.3   794  UNL794     -0.3982
   4760 C          21.2677   21.1395    3.3557 C.3   794  UNL794      0.0330
   4761 H          20.8175   21.8418    2.6496 H     794  UNL794      0.0521
   4762 H          21.0197   21.4270    4.3803 H     794  UNL794      0.0521
   4763 H          20.8871   20.1345    3.1593 H     794  UNL794      0.0521
   4764 H          22.9827   22.0437    3.3721 H     794  UNL794      0.2090
   4765 O          22.6666   20.4196    6.1464 O.3   795  UNL795     -0.3982
   4766 C          24.0763   20.4196    6.2775 C.3   795  UNL795      0.0330
   4767 H          24.5035   19.6506    5.6291 H     795  UNL795      0.0521
   4768 H          24.3463   20.2249    7.3183 H     795  UNL795      0.0521
   4769 H          24.4607   21.3982    5.9807 H     795  UNL795      0.0521
   4770 H          22.3545   19.5392    6.4167 H     795  UNL795      0.2090
   4771 O          21.1709   20.4065    8.7121 O.3   796  UNL796     -0.3982
   4772 C          22.4179   20.3126    9.3760 C.3   796  UNL796      0.0330
   4773 H          23.0537   19.5898    8.8587 H     796  UNL796      0.0521
   4774 H          22.2581   19.9988   10.4104 H     796  UNL796      0.0521
   4775 H          22.9008   21.2926    9.3653 H     796  UNL796      0.0521
   4776 H          20.7664   19.5226    8.7376 H     796  UNL796      0.2090
   4777 O          24.0062   21.6200   13.2502 O.3   797  UNL797     -0.3982
   4778 C          24.8034   20.4521   13.1799 C.3   797  UNL797      0.0330
   4779 H          25.8600   20.7279   13.2233 H     797  UNL797      0.0521
   4780 H          24.5923   19.9215   12.2483 H     797  UNL797      0.0521
   4781 H          24.5626   19.8060   14.0273 H     797  UNL797      0.0521
   4782 H          24.2419   22.1733   12.4861 H     797  UNL797      0.2090
   4783 O          23.2619   20.7803   16.0771 O.3   798  UNL798     -0.3982
   4784 C          21.8461   20.7803   16.0771 C.3   798  UNL798      0.0330
   4785 H          21.4808   20.4001   17.0344 H     798  UNL798      0.0521
   4786 H          21.4809   20.1528   15.2605 H     798  UNL798      0.0521
   4787 H          21.4908   21.8035   15.9344 H     798  UNL798      0.0521
   4788 H          23.5476   19.8597   16.2055 H     798  UNL798      0.2090
   4789 O          25.1791   20.2520   19.2327 O.3   799  UNL799     -0.3982
   4790 C          24.1954   20.6785   20.1573 C.3   799  UNL799      0.0330
   4791 H          23.2162   20.6846   19.6720 H     799  UNL799      0.0521
   4792 H          24.4420   21.6804   20.5168 H     799  UNL799      0.0521
   4793 H          24.1769   19.9852   21.0014 H     799  UNL799      0.0521
   4794 H          25.1722   20.8860   18.4954 H     799  UNL799      0.2090
   4795 O          23.3037   20.1973   23.4780 O.3   800  UNL800     -0.3982
   4796 C          22.0885   20.8807   23.2312 C.3   800  UNL800      0.0330
   4797 H          21.2612   20.3306   23.6863 H     800  UNL800      0.0521
   4798 H          21.9319   20.9695   22.1534 H     800  UNL800      0.0521
   4799 H          22.1461   21.8785   23.6722 H     800  UNL800      0.0521
   4800 H          23.2228   19.3160   23.0753 H     800  UNL800      0.2090
   4801 O          24.6615   20.4905   26.6014 O.3   801  UNL801     -0.3982
   4802 C          23.2648   20.6299   26.7864 C.3   801  UNL801      0.0330
   4803 H          22.8203   19.6478   26.9661 H     801  UNL801      0.0521
   4804 H          22.8222   21.0848   25.8969 H     801  UNL801      0.0521
   4805 H          23.0833   21.2731   27.6506 H     801  UNL801      0.0521
   4806 H          24.7913   19.9151   25.8284 H     801  UNL801      0.2090
   4807 O          23.1294   20.8488   30.2583 O.3   802  UNL802     -0.3982
   4808 C          21.7610   21.1750   30.0985 C.3   802  UNL802      0.0330
   4809 H          21.4997   21.1449   29.0378 H     802  UNL802      0.0521
   4810 H          21.5738   22.1728   30.5027 H     802  UNL802      0.0521
   4811 H          21.1560   20.4450   30.6414 H     802  UNL802      0.0521
   4812 H          23.6409   21.5134   29.7661 H     802  UNL802      0.2090
   4813 O          24.2231   20.1266   34.7657 O.3   803  UNL803     -0.3982
   4814 C          24.6939   20.4093   33.4608 C.3   803  UNL803      0.0330
   4815 H          23.9199   20.9394   32.9001 H     803  UNL803      0.0521
   4816 H          24.9504   19.4755   32.9547 H     803  UNL803      0.0521
   4817 H          25.5841   21.0386   33.5328 H     803  UNL803      0.0521
   4818 H          23.4335   19.5672   34.6696 H     803  UNL803      0.2090
   4819 O          23.8068   20.4567   38.0973 O.3   804  UNL804     -0.3982
   4820 C          22.4754   20.5684   37.6288 C.3   804  UNL804      0.0330
   4821 H          21.9659   19.6086   37.7441 H     804  UNL804      0.0521
   4822 H          22.4820   20.8655   36.5773 H     804  UNL804      0.0521
   4823 H          21.9545   21.3279   38.2165 H     804  UNL804      0.0521
   4824 H          24.2435   19.7761   37.5573 H     804  UNL804      0.2090
   4825 O          23.5760   23.6824   -1.3248 O.3   805  UNL805     -0.3982
   4826 C          22.4938   22.7744   -1.4188 C.3   805  UNL805      0.0330
   4827 H          22.2742   22.3641   -0.4300 H     805  UNL805      0.0521
   4828 H          22.7521   21.9687   -2.1102 H     805  UNL805      0.0521
   4829 H          21.6158   23.3057   -1.7937 H     805  UNL805      0.0521
   4830 H          24.3399   23.1827   -0.9898 H     805  UNL805      0.2090
   4831 O          21.5491   24.0201    1.4318 O.3   806  UNL806     -0.3982
   4832 C          22.1832   25.2508    1.1356 C.3   806  UNL806      0.0330
   4833 H          23.2277   25.0691    0.8706 H     806  UNL806      0.0521
   4834 H          22.1262   25.9096    2.0055 H     806  UNL806      0.0521
   4835 H          21.6717   25.7200    0.2919 H     806  UNL806      0.0521
   4836 H          22.0245   23.6275    2.1838 H     806  UNL806      0.2090
   4837 O          23.9599   24.5636    6.3353 O.3   807  UNL807     -0.3982
   4838 C          23.3076   24.3365    5.0994 C.3   807  UNL807      0.0330
   4839 H          23.1563   25.2891    4.5857 H     807  UNL807      0.0521
   4840 H          22.3456   23.8500    5.2782 H     807  UNL807      0.0521
   4841 H          23.9325   23.6872    4.4819 H     807  UNL807      0.0521
   4842 H          23.3820   25.1423    6.8613 H     807  UNL807      0.2090
   4843 O          24.4632   23.9113    9.2617 O.3   808  UNL808     -0.3982
   4844 C          23.0665   24.0743    9.4259 C.3   808  UNL808      0.0330
   4845 H          22.6958   23.3434   10.1488 H     808  UNL808      0.0521
   4846 H          22.5671   23.9366    8.4638 H     808  UNL808      0.0521
   4847 H          22.8676   25.0828    9.7960 H     808  UNL808      0.0521
   4848 H          24.6087   23.0079    8.9326 H     808  UNL808      0.2090
   4849 O          23.1422   24.5481   12.6145 O.3   809  UNL809     -0.3982
   4850 C          21.7264   24.5481   12.6145 C.3   809  UNL809      0.0330
   4851 H          21.3611   24.2801   11.6200 H     809  UNL809      0.0521
   4852 H          21.3612   25.5394   12.8935 H     809  UNL809      0.0521
   4853 H          21.3711   23.8135   13.3409 H     809  UNL809      0.0521
   4854 H          23.4279   25.2090   11.9609 H     809  UNL809      0.2090
   4855 O          24.0123   23.8686   16.9367 O.3   810  UNL810     -0.3982
   4856 C          23.2211   24.1816   15.8052 C.3   810  UNL810      0.0330
   4857 H          22.1628   24.1023   16.0662 H     810  UNL810      0.0521
   4858 H          23.4592   23.4927   14.9911 H     810  UNL810      0.0521
   4859 H          23.4407   25.2044   15.4899 H     810  UNL810      0.0521
   4860 H          23.7958   22.9560   17.1931 H     810  UNL810      0.2090
   4861 O          23.8641   24.2604   20.5470 O.3   811  UNL811     -0.3982
   4862 C          22.5352   24.2604   20.0586 C.3   811  UNL811      0.0330
   4863 H          22.5463   24.1717   18.9694 H     811  UNL811      0.0521
   4864 H          22.0374   25.1871   20.3543 H     811  UNL811      0.0521
   4865 H          21.9996   23.4094   20.4858 H     811  UNL811      0.0521
   4866 H          24.3141   25.0260   20.1509 H     811  UNL811      0.2090
   4867 O          22.9065   24.5724   23.2946 O.3   812  UNL812     -0.3982
   4868 C          21.4907   24.5724   23.2946 C.3   812  UNL812      0.0330
   4869 H          21.1254   23.8034   23.9798 H     812  UNL812      0.0521
   4870 H          21.1255   24.3777   22.2833 H     812  UNL812      0.0521
   4871 H          21.1354   25.5510   23.6258 H     812  UNL812      0.0521
   4872 H          23.1922   23.6920   22.9966 H     812  UNL812      0.2090
   4873 O          24.8020   24.5588   27.4325 O.3   813  UNL813     -0.3982
   4874 C          23.9160   24.2950   26.3601 C.3   813  UNL813      0.0330
   4875 H          23.5401   23.2720   26.4400 H     813  UNL813      0.0521
   4876 H          24.4411   24.4286   25.4112 H     813  UNL813      0.0521
   4877 H          23.0779   24.9939   26.4117 H     813  UNL813      0.0521
   4878 H          25.5349   23.9237   27.3603 H     813  UNL813      0.2090
   4879 O          23.9660   24.9096   30.3042 O.3   814  UNL814     -0.3982
   4880 C          22.5598   24.9096   30.4683 C.3   814  UNL814      0.0330
   4881 H          22.2764   24.1406   31.1913 H     814  UNL814      0.0521
   4882 H          22.0798   24.7149   29.5062 H     814  UNL814      0.0521
   4883 H          22.2453   25.8882   30.8385 H     814  UNL814      0.0521
   4884 H          24.2153   24.0292   29.9750 H     814  UNL814      0.2090
   4885 O          24.8236   25.1239   33.7474 O.3   815  UNL815     -0.3982
   4886 C          24.6260   23.8574   34.3486 C.3   815  UNL815      0.0330
   4887 H          25.4204   23.1759   34.0342 H     815  UNL815      0.0521
   4888 H          23.6522   23.4604   34.0521 H     815  UNL815      0.0521
   4889 H          24.6553   23.9712   35.4347 H     815  UNL815      0.0521
   4890 H          24.7925   24.9912   32.7846 H     815  UNL815      0.2090
   4891 O          23.1068   24.0210   37.5473 O.3   816  UNL816     -0.3982
   4892 C          21.7852   24.1852   37.0668 C.3   816  UNL816      0.0330
   4893 H          21.0752   23.9628   37.8673 H     816  UNL816      0.0521
   4894 H          21.6184   23.5145   36.2205 H     816  UNL816      0.0521
   4895 H          21.6515   25.2194   36.7411 H     816  UNL816      0.0521
   4896 H          23.1955   23.0945   37.8288 H     816  UNL816      0.2090
   4897 O          23.3113   27.7489   -1.3320 O.3   817  UNL817     -0.3982
   4898 C          24.6973   27.8341   -1.0561 C.3   817  UNL817      0.0330
   4899 H          25.2241   27.0326   -1.5798 H     817  UNL817      0.0521
   4900 H          24.8612   27.7493    0.0210 H     817  UNL817      0.0521
   4901 H          25.0701   28.8003   -1.4041 H     817  UNL817      0.0521
   4902 H          23.0091   26.8817   -1.0122 H     817  UNL817      0.2090
   4903 O          24.5413   28.4755    2.5129 O.3   818  UNL818     -0.3982
   4904 C          23.1255   28.4755    2.5129 C.3   818  UNL818      0.0330
   4905 H          22.7602   27.7065    3.1981 H     818  UNL818      0.0521
   4906 H          22.7603   28.2808    1.5016 H     818  UNL818      0.0521
   4907 H          22.7702   29.4541    2.8441 H     818  UNL818      0.0521
   4908 H          24.8270   27.5951    2.2149 H     818  UNL818      0.2090
   4909 O          22.8091   27.8087    7.0340 O.3   819  UNL819     -0.3982
   4910 C          21.7586   27.7393    6.0874 C.3   819  UNL819      0.0330
   4911 H          20.7980   27.7226    6.6083 H     819  UNL819      0.0521
   4912 H          21.8722   26.8373    5.4811 H     819  UNL819      0.0521
   4913 H          21.8046   28.6186    5.4405 H     819  UNL819      0.0521
   4914 H          22.7426   27.0160    7.5932 H     819  UNL819      0.2090
   4915 O          22.7306   28.6190    9.8738 O.3   820  UNL820     -0.3982
   4916 C          21.3998   28.1374    9.9112 C.3   820  UNL820      0.0330
   4917 H          21.1721   27.7703   10.9150 H     820  UNL820      0.0521
   4918 H          21.2822   27.3322    9.1819 H     820  UNL820      0.0521
   4919 H          20.7191   28.9545    9.6613 H     820  UNL820      0.0521
   4920 H          23.3111   27.8722   10.0995 H     820  UNL820      0.2090
   4921 O          24.4674   27.9985   13.4127 O.3   821  UNL821     -0.3982
   4922 C          23.0990   27.6746   13.2485 C.3   821  UNL821      0.0330
   4923 H          22.8458   26.8244   13.8867 H     821  UNL821      0.0521
   4924 H          22.9050   27.4286   12.2016 H     821  UNL821      0.0521
   4925 H          22.4928   28.5367   13.5362 H     821  UNL821      0.0521
   4926 H          24.9800   27.2151   13.1498 H     821  UNL821      0.2090
   4927 O          22.9475   27.6397   16.4781 O.3   822  UNL822     -0.3982
   4928 C          24.3572   27.6397   16.6092 C.3   822  UNL822      0.0330
   4929 H          24.7844   26.8707   15.9607 H     822  UNL822      0.0521
   4930 H          24.6272   27.4450   17.6499 H     822  UNL822      0.0521
   4931 H          24.7416   28.6183   16.3123 H     822  UNL822      0.0521
   4932 H          22.6354   26.7593   16.7483 H     822  UNL822      0.2090
   4933 O          22.7832   27.8438   19.4817 O.3   823  UNL823     -0.3982
   4934 C          21.4611   27.7416   19.9776 C.3   823  UNL823      0.0330
   4935 H          21.4738   27.2489   20.9530 H     823  UNL823      0.0521
   4936 H          20.8511   27.1678   19.2757 H     823  UNL823      0.0521
   4937 H          21.0430   28.7453   20.0842 H     823  UNL823      0.0521
   4938 H          23.1276   26.9383   19.3976 H     823  UNL823      0.2090
   4939 O          24.7447   28.4016   21.7366 O.3   824  UNL824     -0.3982
   4940 C          24.4777   27.2895   22.5711 C.3   824  UNL824      0.0330
   4941 H          23.6945   27.5500   23.2874 H     824  UNL824      0.0521
   4942 H          25.3896   27.0028   23.1004 H     824  UNL824      0.0521
   4943 H          24.1399   26.4544   21.9530 H     824  UNL824      0.0521
   4944 H          25.0422   29.1262   22.3127 H     824  UNL824      0.2090
   4945 O          23.9389   27.4420   26.9263 O.3   825  UNL825     -0.3982
   4946 C          22.6052   27.7495   26.5640 C.3   825  UNL825      0.0330
   4947 H          22.5685   28.0274   25.5077 H     825  UNL825      0.0521
   4948 H          22.2398   28.5736   27.1815 H     825  UNL825      0.0521
   4949 H          21.9802   26.8687   26.7287 H     825  UNL825      0.0521
   4950 H          24.4692   28.2418   26.7695 H     825  UNL825      0.2090
   4951 O          22.4699   28.3626   29.7087 O.3   826  UNL826     -0.3982
   4952 C          21.0541   28.3626   29.7087 C.3   826  UNL826      0.0330
   4953 H          20.6888   27.5936   30.3939 H     826  UNL826      0.0521
   4954 H          20.6889   28.1679   28.6974 H     826  UNL826      0.0521
   4955 H          20.6988   29.3412   30.0399 H     826  UNL826      0.0521
   4956 H          22.7556   27.4822   29.4107 H     826  UNL826      0.2090
   4957 O          24.2581   28.0071   33.5896 O.3   827  UNL827     -0.3982
   4958 C          22.8821   28.1475   33.2876 C.3   827  UNL827      0.0330
   4959 H          22.4432   27.1614   33.1162 H     827  UNL827      0.0521
   4960 H          22.7653   28.7698   32.3971 H     827  UNL827      0.0521
   4961 H          22.3799   28.6256   34.1319 H     827  UNL827      0.0521
   4962 H          24.6769   27.5804   32.8228 H     827  UNL827      0.2090
   4963 O          23.3249   27.3896   37.4679 O.3   828  UNL828     -0.3982
   4964 C          21.9521   27.6951   37.6310 C.3   828  UNL828      0.0330
   4965 H          21.4560   26.8767   38.1587 H     828  UNL828      0.0521
   4966 H          21.4920   27.8428   36.6510 H     828  UNL828      0.0521
   4967 H          21.8594   28.6126   38.2167 H     828  UNL828      0.0521
   4968 H          23.3754   26.5714   36.9448 H     828  UNL828      0.2090
   4969 O          23.0464   31.4967   -2.0591 O.3   829  UNL829     -0.3982
   4970 C          23.4552   32.2388   -0.9248 C.3   829  UNL829      0.0330
   4971 H          24.4991   32.5401   -1.0422 H     829  UNL829      0.0521
   4972 H          23.3402   31.6266   -0.0270 H     829  UNL829      0.0521
   4973 H          22.8286   33.1296   -0.8384 H     829  UNL829      0.0521
   4974 H          23.6198   30.7130   -2.1096 H     829  UNL829      0.2090
   4975 O          23.5341   32.1506    2.4723 O.3   830  UNL830     -0.3982
   4976 C          22.1183   32.1506    2.4723 C.3   830  UNL830      0.0330
   4977 H          21.7530   31.3816    3.1575 H     830  UNL830      0.0521
   4978 H          21.7531   31.9559    1.4610 H     830  UNL830      0.0521
   4979 H          21.7630   33.1292    2.8035 H     830  UNL830      0.0521
   4980 H          23.8198   31.2702    2.1743 H     830  UNL830      0.2090
   4981 O          24.7918   33.1288    6.7165 O.3   831  UNL831     -0.3982
   4982 C          24.1290   32.5467    5.6091 C.3   831  UNL831      0.0330
   4983 H          23.1992   33.0869    5.4146 H     831  UNL831      0.0521
   4984 H          23.9150   31.4966    5.8223 H     831  UNL831      0.0521
   4985 H          24.7770   32.6133    4.7320 H     831  UNL831      0.0521
   4986 H          24.1930   33.0548    7.4790 H     831  UNL831      0.2090
   4987 O          24.4193   32.3754   10.1380 O.3   832  UNL832     -0.3982
   4988 C          23.0135   32.4671    9.9966 C.3   832  UNL832      0.0330
   4989 H          22.5697   31.4747   10.1082 H     832  UNL832      0.0521
   4990 H          22.7714   32.8778    9.0134 H     832  UNL832      0.0521
   4991 H          22.6208   33.1288   10.7722 H     832  UNL832      0.0521
   4992 H          24.7389   31.7824    9.4368 H     832  UNL832      0.2090
   4993 O          24.5594   31.7183   13.1114 O.3   833  UNL833     -0.3982
   4994 C          23.6318   32.2018   14.0655 C.3   833  UNL833      0.0330
   4995 H          23.5026   31.4601   14.8577 H     833  UNL833      0.0521
   4996 H          22.6746   32.3991   13.5768 H     833  UNL833      0.0521
   4997 H          24.0163   33.1290   14.4967 H     833  UNL833      0.0521
   4998 H          24.1912   30.8957   12.7464 H     833  UNL833      0.2090
   4999 O          23.0533   33.1292   16.9642 O.3   834  UNL834     -0.3982
   5000 C          21.9844   32.2259   17.1781 C.3   834  UNL834      0.0330
   5001 H          22.2128   31.5856   18.0338 H     834  UNL834      0.0521
   5002 H          21.8363   31.6168   16.2830 H     834  UNL834      0.0521
   5003 H          21.0745   32.7945   17.3839 H     834  UNL834      0.0521
   5004 H          23.8463   32.5961   16.7842 H     834  UNL834      0.2090
   5005 O          24.9071   32.0666   19.1405 O.3   835  UNL835     -0.3982
   5006 C          24.1159   32.3796   20.2721 C.3   835  UNL835      0.0330
   5007 H          23.8192   31.4569   20.7769 H     835  UNL835      0.0521
   5008 H          23.2299   32.9354   19.9557 H     835  UNL835      0.0521
   5009 H          24.7036   32.9947   20.9575 H     835  UNL835      0.0521
   5010 H          24.3593   31.5208   18.5510 H     835  UNL835      0.2090
   5011 O          22.9348   33.0981   23.2538 O.3   836  UNL836     -0.3982
   5012 C          22.2517   31.8580   23.2538 C.3   836  UNL836      0.0330
   5013 H          22.7490   31.1670   23.9390 H     836  UNL836      0.0521
   5014 H          22.2460   31.4442   22.2425 H     836  UNL836      0.0521
   5015 H          21.2231   32.0189   23.5850 H     836  UNL836      0.0521
   5016 H          23.8438   32.9236   22.9558 H     836  UNL836      0.2090
   5017 O          24.1696   32.5207   27.5448 O.3   837  UNL837     -0.3982
   5018 C          23.4162   31.9453   26.4932 C.3   837  UNL837      0.0330
   5019 H          23.0641   32.7331   25.8226 H     837  UNL837      0.0521
   5020 H          22.5661   31.3993   26.9094 H     837  UNL837      0.0521
   5021 H          24.0533   31.2539   25.9368 H     837  UNL837      0.0521
   5022 H          23.5784   33.1289   28.0202 H     837  UNL837      0.2090
   5023 O          23.9426   32.2531   30.4633 O.3   838  UNL838     -0.3982
   5024 C          22.5268   32.2531   30.4633 C.3   838  UNL838      0.0330
   5025 H          22.1615   31.3470   30.9529 H     838  UNL838      0.0521
   5026 H          22.1616   32.2967   29.4343 H     838  UNL838      0.0521
   5027 H          22.1715   33.1291   31.0110 H     838  UNL838      0.0521
   5028 H          24.2283   31.4651   29.9705 H     838  UNL838      0.2090
   5029 O          23.9737   31.3378   33.2172 O.3   839  UNL839     -0.3982
   5030 C          23.4599   32.4699   33.8945 C.3   839  UNL839      0.0330
   5031 H          22.7503   32.1465   34.6602 H     839  UNL839      0.0521
   5032 H          22.9641   33.1299   33.1786 H     839  UNL839      0.0521
   5033 H          24.2857   33.0052   34.3689 H     839  UNL839      0.0521
   5034 H          23.2184   30.8833   32.8067 H     839  UNL839      0.2090
   5035 O          23.5547   32.9584   37.2962 O.3   840  UNL840     -0.3982
   5036 C          24.4020   31.8241   37.2962 C.3   840  UNL840      0.0330
   5037 H          23.8538   30.9587   37.6767 H     840  UNL840      0.0521
   5038 H          25.2750   32.0204   37.9234 H     840  UNL840      0.0521
   5039 H          24.7288   31.6247   36.2729 H     840  UNL840      0.0521
   5040 H          23.2812   33.1106   38.2168 H     840  UNL840      0.2090
   5041 O          29.5243   -1.4125   -1.2503 O.3   841  UNL841     -0.3982
   5042 C          28.1085   -1.4125   -1.2503 C.3   841  UNL841      0.0330
   5043 H          27.7432   -1.9793   -2.1103 H     841  UNL841      0.0521
   5044 H          27.7433   -0.3837   -1.2967 H     841  UNL841      0.0521
   5045 H          27.7532   -1.8818   -0.3298 H     841  UNL841      0.0521
   5046 H          29.8100   -0.9904   -2.0783 H     841  UNL841      0.2090
   5047 O          27.9629   -1.9718    3.2112 O.3   842  UNL842     -0.3982
   5048 C          29.2496   -1.4047    3.0463 C.3   842  UNL842      0.0330
   5049 H          29.1521   -0.3662    2.7203 H     842  UNL842      0.0521
   5050 H          29.8098   -1.9794    2.3047 H     842  UNL842      0.0521
   5051 H          29.7770   -1.4362    4.0026 H     842  UNL842      0.0521
   5052 H          27.5193   -1.9300    2.3469 H     842  UNL842      0.2090
   5053 O          27.7712   -0.2110    6.6578 O.3   843  UNL843     -0.3982
   5054 C          29.0792   -0.7250    6.8290 C.3   843  UNL843      0.0330
   5055 H          29.8098    0.0669    6.6463 H     843  UNL843      0.0521
   5056 H          29.2406   -1.5519    6.1331 H     843  UNL843      0.0521
   5057 H          29.1870   -1.0879    7.8538 H     843  UNL843      0.0521
   5058 H          27.7055    0.1031    5.7399 H     843  UNL843      0.2090
   5059 O          27.0936   -1.0995    9.4252 O.3   844  UNL844     -0.3982
   5060 C          25.6778   -1.0995    9.4252 C.3   844  UNL844      0.0330
   5061 H          25.3125   -1.8685   10.1104 H     844  UNL844      0.0521
   5062 H          25.3126   -1.2942    8.4139 H     844  UNL844      0.0521
   5063 H          25.3225   -0.1209    9.7564 H     844  UNL844      0.0521
   5064 H          27.3793   -1.9799    9.1272 H     844  UNL844      0.2090
   5065 O          27.9427   -1.0995   12.3436 O.3   845  UNL845     -0.3982
   5066 C          29.3524   -1.0995   12.2125 C.3   845  UNL845      0.0330
   5067 H          29.6526   -1.8685   11.4964 H     845  UNL845      0.0521
   5068 H          29.8097   -1.2942   13.1856 H     845  UNL845      0.0521
   5069 H          29.6755   -0.1209   11.8498 H     845  UNL845      0.0521
   5070 H          27.6858   -1.9799   12.6667 H     845  UNL845      0.2090
   5071 O          28.6611   -0.1125   15.1964 O.3   846  UNL846     -0.3982
   5072 C          28.5168   -0.8576   16.3915 C.3   846  UNL846      0.0330
   5073 H          28.2749   -0.1824   17.2160 H     846  UNL846      0.0521
   5074 H          29.4467   -1.3908   16.6040 H     846  UNL846      0.0521
   5075 H          27.7064   -1.5793   16.2647 H     846  UNL846      0.0521
   5076 H          29.3867    0.5189   15.3391 H     846  UNL846      0.2090
   5077 O          27.9728   -1.0715   19.5892 O.3   847  UNL847     -0.3982
   5078 C          29.3825   -1.1307   19.7062 C.3   847  UNL847      0.0330
   5079 H          29.8097   -1.5241   18.7804 H     847  UNL847      0.0521
   5080 H          29.6525   -1.7744   20.5469 H     847  UNL847      0.0521
   5081 H          29.7670   -0.1235   19.8832 H     847  UNL847      0.0521
   5082 H          27.6607   -1.9791   19.4329 H     847  UNL847      0.2090
   5083 O          28.7725   -1.4907   23.1710 O.3   848  UNL848     -0.3982
   5084 C          27.9813   -0.3388   22.9438 C.3   848  UNL848      0.0330
   5085 H          28.6312    0.5245   22.7805 H     848  UNL848      0.0521
   5086 H          27.3349   -0.1636   23.8073 H     848  UNL848      0.0521
   5087 H          27.3645   -0.5007   22.0567 H     848  UNL848      0.0521
   5088 H          29.3084   -1.3174   23.9636 H     848  UNL848      0.2090
   5089 O          29.5243   -1.0995   26.5748 O.3   849  UNL849     -0.3982
   5090 C          28.1085   -1.0995   26.5748 C.3   849  UNL849      0.0330
   5091 H          27.7432   -1.8685   27.2600 H     849  UNL849      0.0521
   5092 H          27.7433   -1.2942   25.5635 H     849  UNL849      0.0521
   5093 H          27.7532   -0.1209   26.9060 H     849  UNL849      0.0521
   5094 H          29.8100   -1.9799   26.2768 H     849  UNL849      0.2090
   5095 O          27.9863    0.3810   29.9852 O.3   850  UNL850     -0.3982
   5096 C          29.1454   -0.3996   29.7580 C.3   850  UNL850      0.0330
   5097 H          28.8581   -1.4413   29.5947 H     850  UNL850      0.0521
   5098 H          29.8109   -0.3251   30.6215 H     850  UNL850      0.0521
   5099 H          29.6595   -0.0224   28.8709 H     850  UNL850      0.0521
   5100 H          27.5515    0.0229   30.7779 H     850  UNL850      0.2090
   5101 O          27.9728   -1.0607   33.1530 O.3   851  UNL851     -0.3982
   5102 C          29.3825   -1.1060   33.2760 C.3   851  UNL851      0.0330
   5103 H          29.8097   -1.6041   32.4021 H     851  UNL851      0.0521
   5104 H          29.6525   -1.6478   34.1857 H     851  UNL851      0.0521
   5105 H          29.7670   -0.0850   33.3350 H     851  UNL851      0.0521
   5106 H          27.6607   -1.9803   33.1029 H     851  UNL851      0.2090
   5107 O          27.9026   -0.7371   36.7358 O.3   852  UNL852     -0.3982
   5108 C          28.9351   -0.2709   37.5849 C.3   852  UNL852      0.0330
   5109 H          29.2977   -1.0944   38.2051 H     852  UNL852      0.0521
   5110 H          28.5525    0.5342   38.2170 H     852  UNL852      0.0521
   5111 H          29.7554    0.1090   36.9714 H     852  UNL852      0.0521
   5112 H          27.1893   -1.0676   37.3081 H     852  UNL852      0.2090
   5113 O          29.5245    2.5072   -1.0838 O.3   853  UNL853     -0.3982
   5114 C          28.1087    2.5072   -1.0838 C.3   853  UNL853      0.0330
   5115 H          27.7434    1.6639   -0.4924 H     853  UNL853      0.0521
   5116 H          27.7435    2.4311   -2.1108 H     853  UNL853      0.0521
   5117 H          27.7534    3.4408   -0.6413 H     853  UNL853      0.0521
   5118 H          29.8102    1.6673   -1.4819 H     853  UNL853      0.2090
   5119 O          28.2973    2.1096    2.7149 O.3   854  UNL854     -0.3982
   5120 C          29.1062    3.2614    2.8678 C.3   854  UNL854      0.0330
   5121 H          28.4742    4.1247    3.0906 H     854  UNL854      0.0521
   5122 H          29.6698    3.4366    1.9482 H     854  UNL854      0.0521
   5123 H          29.8025    3.0995    3.6940 H     854  UNL854      0.0521
   5124 H          27.6903    2.2829    1.9752 H     854  UNL854      0.2090
   5125 O          29.7641    3.6918    6.2057 O.3   855  UNL855     -0.3982
   5126 C          28.5788    2.9186    6.2453 C.3   855  UNL855      0.0330
   5127 H          27.7143    3.5799    6.3433 H     855  UNL855      0.0521
   5128 H          28.6209    2.2286    7.0916 H     855  UNL855      0.0521
   5129 H          28.4953    2.3485    5.3171 H     855  UNL855      0.0521
   5130 H          29.8109    4.1861    7.0418 H     855  UNL855      0.2090
   5131 O          28.2834    3.7081    9.7906 O.3   856  UNL856     -0.3982
   5132 C          29.1106    2.5594    9.8153 C.3   856  UNL856      0.0330
   5133 H          29.6592    2.5245   10.7599 H     856  UNL856      0.0521
   5134 H          29.8101    2.5949    8.9766 H     856  UNL856      0.0521
   5135 H          28.4843    1.6686    9.7271 H     856  UNL856      0.0521
   5136 H          28.8667    4.4820    9.8705 H     856  UNL856      0.2090
   5137 O          28.2675    3.6016   12.7446 O.3   857  UNL857     -0.3982
   5138 C          27.1997    2.6779   12.6397 C.3   857  UNL857      0.0330
   5139 H          26.2480    3.2089   12.7206 H     857  UNL857      0.0521
   5140 H          27.2821    1.9327   13.4347 H     857  UNL857      0.0521
   5141 H          27.2551    2.1795   11.6690 H     857  UNL857      0.0521
   5142 H          28.1921    4.0278   13.6153 H     857  UNL857      0.2090
   5143 O          28.2821    3.1095   16.0313 O.3   858  UNL858     -0.3982
   5144 C          26.8834    3.3269   16.0034 C.3   858  UNL858      0.0330
   5145 H          26.4789    3.2326   17.0143 H     858  UNL858      0.0521
   5146 H          26.4132    2.5955   15.3416 H     858  UNL858      0.0521
   5147 H          26.6878    4.3339   15.6275 H     858  UNL858      0.0521
   5148 H          28.4246    2.2088   16.3687 H     858  UNL858      0.2090
   5149 O          29.1319    2.7926   20.2737 O.3   859  UNL859     -0.3982
   5150 C          28.1070    2.2138   19.4868 C.3   859  UNL859      0.0330
   5151 H          28.5207    1.3950   18.8929 H     859  UNL859      0.0521
   5152 H          27.6777    2.9740   18.8297 H     859  UNL859      0.0521
   5153 H          27.3287    1.8248   20.1475 H     859  UNL859      0.0521
   5154 H          29.8075    3.1287   19.6605 H     859  UNL859      0.2090
   5155 O          29.5136    3.1790   23.4939 O.3   860  UNL860     -0.3982
   5156 C          28.0978    3.1790   23.4939 C.3   860  UNL860      0.0330
   5157 H          27.7325    2.3357   24.0853 H     860  UNL860      0.0521
   5158 H          27.7326    3.1029   22.4668 H     860  UNL860      0.0521
   5159 H          27.7425    4.1126   23.9363 H     860  UNL860      0.0521
   5160 H          29.7993    2.3391   23.0958 H     860  UNL860      0.2090
   5161 O          29.5266    2.2154   27.5106 O.3   861  UNL861     -0.3982
   5162 C          29.0138    3.3133   26.7783 C.3   861  UNL861      0.0330
   5163 H          28.0808    3.0223   26.2893 H     861  UNL861      0.0521
   5164 H          29.7464    3.6281   26.0312 H     861  UNL861      0.0521
   5165 H          28.8199    4.1397   27.4661 H     861  UNL861      0.0521
   5166 H          29.6888    1.4983   26.8743 H     861  UNL861      0.2090
   5167 O          29.5248    3.5431   30.1627 O.3   862  UNL862     -0.3982
   5168 C          28.1090    3.5431   30.1627 C.3   862  UNL862      0.0330
   5169 H          27.7437    3.0799   29.2427 H     862  UNL862      0.0521
   5170 H          27.7438    4.5704   30.2359 H     862  UNL862      0.0521
   5171 H          27.7537    2.9703   31.0225 H     862  UNL862      0.0521
   5172 H          29.8105    4.0585   29.3892 H     862  UNL862      0.2090
   5173 O          29.7179    2.5598   33.0097 O.3   863  UNL863     -0.3982
   5174 C          28.8349    2.5032   34.1149 C.3   863  UNL863      0.0330
   5175 H          27.8652    2.9185   33.8295 H     863  UNL863      0.0521
   5176 H          29.2556    3.0714   34.9480 H     863  UNL863      0.0521
   5177 H          28.7080    1.4604   34.4152 H     863  UNL863      0.0521
   5178 H          29.8109    3.4966   32.7660 H     863  UNL863      0.2090
   5179 O          29.3796    3.2550   38.0517 O.3   864  UNL864     -0.3982
   5180 C          28.0019    3.2929   37.7277 C.3   864  UNL864      0.0330
   5181 H          27.4885    2.4615   38.2172 H     864  UNL864      0.0521
   5182 H          27.8795    3.2234   36.6441 H     864  UNL864      0.0521
   5183 H          27.5798    4.2370   38.0800 H     864  UNL864      0.0521
   5184 H          29.7263    2.4066   37.7269 H     864  UNL864      0.2090
   5185 O          29.7681    6.7012   -1.4185 O.3   865  UNL865     -0.3982
   5186 C          28.4742    6.2273   -1.0934 C.3   865  UNL865      0.0330
   5187 H          28.0126    5.7875   -1.9810 H     865  UNL865      0.0521
   5188 H          27.8639    7.0553   -0.7247 H     865  UNL865      0.0521
   5189 H          28.5599    5.4658   -0.3147 H     865  UNL865      0.0521
   5190 H          29.6599    7.3749   -2.1112 H     865  UNL865      0.2090
   5191 O          29.2803    6.8758    2.6908 O.3   866  UNL866     -0.3982
   5192 C          27.8645    6.8755    2.6908 C.3   866  UNL866      0.0330
   5193 H          27.4991    7.7966    3.1516 H     866  UNL866      0.0521
   5194 H          27.4995    6.0081    3.2460 H     866  UNL866      0.0521
   5195 H          27.5092    6.8209    1.6592 H     866  UNL866      0.0521
   5196 H          29.5660    6.9249    3.6190 H     866  UNL866      0.2090
   5197 O          29.2248    7.1539    6.3529 O.3   867  UNL867     -0.3982
   5198 C          27.8940    6.6712    6.3341 C.3   867  UNL867      0.0330
   5199 H          27.7407    5.9896    7.1745 H     867  UNL867      0.0521
   5200 H          27.7072    6.1518    5.3911 H     867  UNL867      0.0521
   5201 H          27.2080    7.5168    6.4238 H     867  UNL867      0.0521
   5202 H          29.8100    6.3816    6.2717 H     867  UNL867      0.2090
   5203 O          27.9728    7.2451    9.4622 O.3   868  UNL868     -0.3982
   5204 C          29.3825    7.1985    9.5848 C.3   868  UNL868      0.0330
   5205 H          29.8097    6.7098    8.7056 H     868  UNL868      0.0521
   5206 H          29.6525    6.6471   10.4887 H     868  UNL868      0.0521
   5207 H          29.7670    8.2188    9.6546 H     868  UNL868      0.0521
   5208 H          27.6607    6.3261    9.4024 H     868  UNL868      0.2090
   5209 O          29.5228    7.0229   13.0499 O.3   869  UNL869     -0.3982
   5210 C          28.1070    7.0229   13.0499 C.3   869  UNL869      0.0330
   5211 H          27.7417    6.2539   13.7351 H     869  UNL869      0.0521
   5212 H          27.7418    6.8282   12.0386 H     869  UNL869      0.0521
   5213 H          27.7517    8.0015   13.3811 H     869  UNL869      0.0521
   5214 H          29.8085    6.1425   12.7519 H     869  UNL869      0.2090
   5215 O          28.8989    7.4214   17.2622 O.3   870  UNL870     -0.3982
   5216 C          28.8287    6.1723   16.5994 C.3   870  UNL870      0.0330
   5217 H          29.8101    5.9205   16.1897 H     870  UNL870      0.0521
   5218 H          28.0896    6.2260   15.7964 H     870  UNL870      0.0521
   5219 H          28.5284    5.4055   17.3174 H     870  UNL870      0.0521
   5220 H          29.1673    8.0813   16.6004 H     870  UNL870      0.2090
   5221 O          29.1512    5.9892   19.9332 O.3   871  UNL871     -0.3982
   5222 C          27.7450    6.1522   19.9522 C.3   871  UNL871      0.0330
   5223 H          27.2770    5.2436   20.3390 H     871  UNL871      0.0521
   5224 H          27.3873    6.3566   18.9401 H     871  UNL871      0.0521
   5225 H          27.4936    6.9938   20.6019 H     871  UNL871      0.0521
   5226 H          29.3436    5.2359   19.3491 H     871  UNL871      0.2090
   5227 O          28.7096    6.7774   23.3226 O.3   872  UNL872     -0.3982
   5228 C          27.2938    6.7774   23.3226 C.3   872  UNL872      0.0330
   5229 H          26.9285    6.5285   24.3220 H     872  UNL872      0.0521
   5230 H          26.9286    6.0465   22.5970 H     872  UNL872      0.0521
   5231 H          26.9385    7.7724   23.0445 H     872  UNL872      0.0521
   5232 H          28.9953    5.8823   23.5727 H     872  UNL872      0.2090
   5233 O          29.5245    7.4262   27.1468 O.3   873  UNL873     -0.3982
   5234 C          28.1087    7.4262   27.1468 C.3   873  UNL873      0.0330
   5235 H          27.7434    8.2868   27.7126 H     873  UNL873      0.0521
   5236 H          27.7435    6.4995   27.5962 H     873  UNL873      0.0521
   5237 H          27.7534    7.4933   26.1159 H     873  UNL873      0.0521
   5238 H          29.8102    7.3658   28.0743 H     873  UNL873      0.2090
   5239 O          28.1182    7.2037   30.2729 O.3   874  UNL874     -0.3982
   5240 C          26.7025    7.1862   30.2653 C.3   874  UNL874      0.0330
   5241 H          26.3471    6.2235   30.6409 H     874  UNL874      0.0521
   5242 H          26.3408    7.3481   29.2470 H     874  UNL874      0.0521
   5243 H          26.3339    7.9858   30.9121 H     874  UNL874      0.0521
   5244 H          28.4160    6.4839   29.6909 H     874  UNL874      0.2090
   5245 O          28.0074    6.6085   33.2524 O.3   875  UNL875     -0.3982
   5246 C          29.4219    6.5496   33.2358 C.3   875  UNL875      0.0330
   5247 H          29.7448    5.6930   32.6390 H     875  UNL875      0.0521
   5248 H          29.7955    6.4564   34.2584 H     875  UNL875      0.0521
   5249 H          29.8106    7.4684   32.7906 H     875  UNL875      0.0521
   5250 H          27.6916    5.7805   33.6526 H     875  UNL875      0.2090
   5251 O          28.5682    6.8911   37.4565 O.3   876  UNL876     -0.3982
   5252 C          27.1620    6.8911   37.2923 C.3   876  UNL876      0.0330
   5253 H          26.6881    6.5110   38.2007 H     876  UNL876      0.0521
   5254 H          26.8940    6.2637   36.4388 H     876  UNL876      0.0521
   5255 H          26.8256    7.9144   37.1094 H     876  UNL876      0.0521
   5256 H          28.8371    5.9706   37.6171 H     876  UNL876      0.2090
   5257 O          28.1951    9.7472   -2.1101 O.3   877  UNL877     -0.3982
   5258 C          29.0424   10.0085   -1.0063 C.3   877  UNL877      0.0330
   5259 H          29.8099    9.2332   -0.9434 H     877  UNL877      0.0521
   5260 H          28.4507   10.0259   -0.0878 H     877  UNL877      0.0521
   5261 H          29.5203   10.9807   -1.1476 H     877  UNL877      0.0521
   5262 H          27.7853    8.8789   -1.9564 H     877  UNL877      0.2090
   5263 O          29.8097   10.4319    3.4063 O.3   878  UNL878     -0.3982
   5264 C          28.6343   10.2678    2.6343 C.3   878  UNL878      0.0330
   5265 H          28.4802   11.1520    2.0109 H     878  UNL878      0.0521
   5266 H          27.7785   10.1232    3.2982 H     878  UNL878      0.0521
   5267 H          28.7490    9.3894    1.9949 H     878  UNL878      0.0521
   5268 H          29.6783   11.2182    3.9631 H     878  UNL878      0.2090
   5269 O          27.9844   10.6079    6.6906 O.3   879  UNL879     -0.3982
   5270 C          29.3941   10.5226    6.5910 C.3   879  UNL879      0.0330
   5271 H          29.7907   11.4649    6.2047 H     879  UNL879      0.0521
   5272 H          29.6640    9.7005    5.9237 H     879  UNL879      0.0521
   5273 H          29.8097   10.3346    7.5837 H     879  UNL879      0.0521
   5274 H          27.6443   10.7750    5.7951 H     879  UNL879      0.2090
   5275 O          28.1980   10.3169    9.6636 O.3   880  UNL880     -0.3982
   5276 C          26.7822   10.3169    9.6636 C.3   880  UNL880      0.0330
   5277 H          26.4169   11.2113    9.1528 H     880  UNL880      0.0521
   5278 H          26.4170   10.2975   10.6933 H     880  UNL880      0.0521
   5279 H          26.4269    9.4283    9.1366 H     880  UNL880      0.0521
   5280 H          28.4837   11.1163   10.1377 H     880  UNL880      0.2090
   5281 O          29.8104   10.1682   12.1886 O.3   881  UNL881     -0.3982
   5282 C          29.1319   10.2474   13.4287 C.3   881  UNL881      0.0330
   5283 H          29.4638    9.4344   14.0792 H     881  UNL881      0.0521
   5284 H          28.0545   10.1772   13.2606 H     881  UNL881      0.0521
   5285 H          29.3633   11.2056   13.8997 H     881  UNL881      0.0521
   5286 H          29.5859    9.3080   11.7945 H     881  UNL881      0.2090
   5287 O          28.2892   10.5484   16.5244 O.3   882  UNL882     -0.3982
   5288 C          26.8830   10.5487   16.6886 C.3   882  UNL882      0.0330
   5289 H          26.5438   11.5586   16.9324 H     882  UNL882      0.0521
   5290 H          26.6086    9.8575   17.4892 H     882  UNL882      0.0521
   5291 H          26.4162   10.2253   15.7552 H     882  UNL882      0.0521
   5292 H          28.6754   10.8393   17.3681 H     882  UNL882      0.2090
   5293 O          27.9985    9.4185   19.7235 O.3   883  UNL883     -0.3982
   5294 C          29.4132    9.4073   19.7795 C.3   883  UNL883      0.0330
   5295 H          29.7391    9.5573   20.8117 H     883  UNL883      0.0521
   5296 H          29.8102   10.2009   19.1418 H     883  UNL883      0.0521
   5297 H          29.7752    8.4404   19.4222 H     883  UNL883      0.0521
   5298 H          27.7067   10.2881   20.0463 H     883  UNL883      0.2090
   5299 O          29.5245   10.3098   23.2611 O.3   884  UNL884     -0.3982
   5300 C          28.1087   10.3098   23.2611 C.3   884  UNL884      0.0330
   5301 H          27.7434    9.5408   23.9463 H     884  UNL884      0.0521
   5302 H          27.7435   10.1151   22.2498 H     884  UNL884      0.0521
   5303 H          27.7534   11.2884   23.5923 H     884  UNL884      0.0521
   5304 H          29.8102    9.4294   22.9631 H     884  UNL884      0.2090
   5305 O          28.3364   10.5824   26.5774 O.3   885  UNL885     -0.3982
   5306 C          26.9302   10.5824   26.4132 C.3   885  UNL885      0.0330
   5307 H          26.6690   11.1231   25.5001 H     885  UNL885      0.0521
   5308 H          26.4616   11.0583   27.2780 H     885  UNL885      0.0521
   5309 H          26.5816    9.5499   26.3350 H     885  UNL885      0.0521
   5310 H          28.6163   11.5112   26.6439 H     885  UNL885      0.2090
   5311 O          29.7527    9.8654   30.0525 O.3   886  UNL886     -0.3982
   5312 C          28.4747   10.4730   30.0956 C.3   886  UNL886      0.0330
   5313 H          27.7383    9.7498   30.4546 H     886  UNL886      0.0521
   5314 H          28.2020   10.8213   29.0964 H     886  UNL886      0.0521
   5315 H          28.5090   11.3246   30.7791 H     886  UNL886      0.0521
   5316 H          29.6912    9.1138   29.4386 H     886  UNL886      0.2090
   5317 O          29.7633   10.0843   33.1100 O.3   887  UNL887     -0.3982
   5318 C          29.1383   10.5746   34.2819 C.3   887  UNL887      0.0330
   5319 H          28.1335   10.9290   34.0390 H     887  UNL887      0.0521
   5320 H          29.7332   11.3908   34.6990 H     887  UNL887      0.0521
   5321 H          29.0701    9.7658   35.0132 H     887  UNL887      0.0521
   5322 H          29.8097   10.8237   32.4802 H     887  UNL887      0.2090
   5323 O          29.4306   10.3914   37.5318 O.3   888  UNL888     -0.3982
   5324 C          28.0148   10.3914   37.5318 C.3   888  UNL888      0.0330
   5325 H          27.6495    9.6224   38.2170 H     888  UNL888      0.0521
   5326 H          27.6496   10.1967   36.5205 H     888  UNL888      0.0521
   5327 H          27.6595   11.3700   37.8630 H     888  UNL888      0.0521
   5328 H          29.7163    9.5110   37.2338 H     888  UNL888      0.2090
   5329 O          29.5602   13.8409   -2.1113 O.3   889  UNL889     -0.3982
   5330 C          28.3709   13.4296   -1.4626 C.3   889  UNL889      0.0330
   5331 H          27.5834   14.1657   -1.6425 H     889  UNL889      0.0521
   5332 H          28.5549   13.3319   -0.3900 H     889  UNL889      0.0521
   5333 H          28.0620   12.4627   -1.8666 H     889  UNL889      0.0521
   5334 H          29.8096   14.7009   -1.7322 H     889  UNL889      0.2090
   5335 O          28.7435   13.8900    2.6438 O.3   890  UNL890     -0.3982
   5336 C          27.3892   13.6531    2.3057 C.3   890  UNL890      0.0330
   5337 H          26.8834   13.1662    3.1431 H     890  UNL890      0.0521
   5338 H          27.3402   13.0183    1.4176 H     890  UNL890      0.0521
   5339 H          26.9032   14.6087    2.0950 H     890  UNL890      0.0521
   5340 H          29.1482   13.0246    2.8251 H     890  UNL890      0.2090
   5341 O          29.7920   14.8147    6.5961 O.3   891  UNL891     -0.3982
   5342 C          28.6039   14.0858    6.3478 C.3   891  UNL891      0.0330
   5343 H          27.7381   14.6948    6.6195 H     891  UNL891      0.0521
   5344 H          28.6122   13.1633    6.9335 H     891  UNL891      0.0521
   5345 H          28.5540   13.8392    5.2846 H     891  UNL891      0.0521
   5346 H          29.8084   15.0190    7.5467 H     891  UNL891      0.2090
   5347 O          29.5245   13.7193    9.9567 O.3   892  UNL892     -0.3982
   5348 C          28.1087   13.7193    9.9567 C.3   892  UNL892      0.0330
   5349 H          27.7434   12.9503   10.6419 H     892  UNL892      0.0521
   5350 H          27.7435   13.5246    8.9454 H     892  UNL892      0.0521
   5351 H          27.7534   14.6979   10.2879 H     892  UNL892      0.0521
   5352 H          29.8102   12.8389    9.6587 H     892  UNL892      0.2090
   5353 O          27.9253   14.1018   13.0172 O.3   893  UNL893     -0.3982
   5354 C          26.5486   13.7719   13.0369 C.3   893  UNL893      0.0330
   5355 H          26.3634   13.0232   13.8110 H     893  UNL893      0.0521
   5356 H          26.2525   13.3823   12.0599 H     893  UNL893      0.0521
   5357 H          25.9707   14.6722   13.2581 H     893  UNL893      0.0521
   5358 H          28.4123   13.2839   12.8187 H     893  UNL893      0.2090
   5359 O          27.9669   13.4304   15.8424 O.3   894  UNL894     -0.3982
   5360 C          29.2501   13.8640   16.2546 C.3   894  UNL894      0.0330
   5361 H          29.8107   14.2221   15.3875 H     894  UNL894      0.0521
   5362 H          29.7812   13.0347   16.7280 H     894  UNL894      0.0521
   5363 H          29.1359   14.6786   16.9737 H     894  UNL894      0.0521
   5364 H          28.1004   12.7080   15.2054 H     894  UNL894      0.2090
   5365 O          29.7968   13.1761   19.8081 O.3   895  UNL895     -0.3982
   5366 C          28.4659   13.6588   19.8271 C.3   895  UNL895      0.0330
   5367 H          27.8013   12.8823   20.2140 H     895  UNL895      0.0521
   5368 H          28.1649   13.9400   18.8151 H     895  UNL895      0.0521
   5369 H          28.4153   14.5356   20.4769 H     895  UNL895      0.0521
   5370 H          29.8105   12.3988   19.2240 H     895  UNL895      0.2090
   5371 O          28.8570   13.9139   23.2081 O.3   896  UNL896     -0.3982
   5372 C          27.4508   13.9139   23.0439 C.3   896  UNL896      0.0330
   5373 H          26.9726   13.6467   23.9896 H     896  UNL896      0.0521
   5374 H          27.1737   13.1965   22.2677 H     896  UNL896      0.0521
   5375 H          27.1280   14.9139   22.7447 H     896  UNL896      0.0521
   5376 H          29.1137   13.0143   23.4734 H     896  UNL896      0.2090
   5377 O          29.2446   13.9474   26.1705 O.3   897  UNL897     -0.3982
   5378 C          27.9351   14.3555   26.5215 C.3   897  UNL897      0.0330
   5379 H          27.5842   15.1080   25.8109 H     897  UNL897      0.0521
   5380 H          27.9402   14.7686   27.5331 H     897  UNL897      0.0521
   5381 H          27.2716   13.4882   26.4877 H     897  UNL897      0.0521
   5382 H          29.8101   14.7374   26.2093 H     897  UNL897      0.2090
   5383 O          28.5938   14.1110   30.2168 O.3   898  UNL898     -0.3982
   5384 C          27.1780   14.1110   30.2168 C.3   898  UNL898      0.0330
   5385 H          26.8127   13.3293   30.8875 H     898  UNL898      0.0521
   5386 H          26.8128   13.9353   29.2021 H     898  UNL898      0.0521
   5387 H          26.8227   15.0832   30.5663 H     898  UNL898      0.0521
   5388 H          28.8795   13.2363   29.9024 H     898  UNL898      0.2090
   5389 O          29.6235   14.1013   33.5627 O.3   899  UNL899     -0.3982
   5390 C          28.2458   13.7752   33.5627 C.3   899  UNL899      0.0330
   5391 H          28.0209   13.1395   32.7027 H     899  UNL899      0.0521
   5392 H          27.6534   14.6922   33.5163 H     899  UNL899      0.0521
   5393 H          28.0081   13.2367   34.4832 H     899  UNL899      0.0521
   5394 H          29.8043   14.5780   32.7347 H     899  UNL899      0.2090
   5395 O          28.1754   13.8817   36.9217 O.3   900  UNL900     -0.3982
   5396 C          26.7596   13.8817   36.9217 C.3   900  UNL900      0.0330
   5397 H          26.3944   13.1127   37.6069 H     900  UNL900      0.0521
   5398 H          26.3945   13.6870   35.9104 H     900  UNL900      0.0521
   5399 H          26.4044   14.8603   37.2529 H     900  UNL900      0.0521
   5400 H          28.4611   13.0013   36.6237 H     900  UNL900      0.2090
   5401 O          28.6397   17.4851   -0.9065 O.3   901  UNL901     -0.3982
   5402 C          27.2239   17.4851   -0.9065 C.3   901  UNL901      0.0330
   5403 H          26.8586   16.7161   -0.2213 H     901  UNL901      0.0521
   5404 H          26.8587   17.2904   -1.9178 H     901  UNL901      0.0521
   5405 H          26.8686   18.4637   -0.5753 H     901  UNL901      0.0521
   5406 H          28.9254   16.6047   -1.2045 H     901  UNL901      0.2090
   5407 O          29.5118   17.0648    2.9623 O.3   902  UNL902     -0.3982
   5408 C          28.1341   17.0648    2.6362 C.3   902  UNL902      0.0330
   5409 H          27.5842   16.4743    3.3733 H     902  UNL902      0.0521
   5410 H          27.9951   16.6424    1.6381 H     902  UNL902      0.0521
   5411 H          27.7660   18.0934    2.6486 H     902  UNL902      0.0521
   5412 H          29.8099   16.1394    2.9433 H     902  UNL902      0.2090
   5413 O          28.2359   17.5429    5.8431 O.3   903  UNL903     -0.3982
   5414 C          26.8201   17.5429    5.8431 C.3   903  UNL903      0.0330
   5415 H          26.4548   16.6367    6.3327 H     903  UNL903      0.0521
   5416 H          26.4549   17.5864    4.8141 H     903  UNL903      0.0521
   5417 H          26.4648   18.4189    6.3908 H     903  UNL903      0.0521
   5418 H          28.5216   16.7548    5.3503 H     903  UNL903      0.2090
   5419 O          28.6036   17.3038   10.0483 O.3   904  UNL904     -0.3982
   5420 C          27.1878   17.3038   10.0483 C.3   904  UNL904      0.0330
   5421 H          26.8225   16.5348   10.7335 H     904  UNL904      0.0521
   5422 H          26.8226   17.1091    9.0370 H     904  UNL904      0.0521
   5423 H          26.8325   18.2824   10.3795 H     904  UNL904      0.0521
   5424 H          28.8893   16.4234    9.7503 H     904  UNL904      0.2090
   5425 O          27.8718   17.5297   13.1585 O.3   905  UNL905     -0.3982
   5426 C          29.1885   17.0414   13.3380 C.3   905  UNL905      0.0330
   5427 H          29.8108   17.8231   13.7807 H     905  UNL905      0.0521
   5428 H          29.5997   16.7366   12.3726 H     905  UNL905      0.0521
   5429 H          29.1594   16.1789   14.0079 H     905  UNL905      0.0521
   5430 H          27.9295   18.2939   12.5601 H     905  UNL905      0.2090
   5431 O          29.5846   17.3783   16.5034 O.3   906  UNL906     -0.3982
   5432 C          28.1784   17.3973   16.6665 C.3   906  UNL906      0.0330
   5433 H          27.8719   16.5565   17.2937 H     906  UNL906      0.0521
   5434 H          27.6963   17.3306   15.6881 H     906  UNL906      0.0521
   5435 H          27.8893   18.3337   17.1494 H     906  UNL906      0.0521
   5436 H          29.8109   16.5363   16.0727 H     906  UNL906      0.2090
   5437 O          28.3879   17.0980   19.8514 O.3   907  UNL907     -0.3982
   5438 C          26.9816   17.2610   19.8704 C.3   907  UNL907      0.0330
   5439 H          26.5137   16.3524   20.2573 H     907  UNL907      0.0521
   5440 H          26.6239   17.4654   18.8583 H     907  UNL907      0.0521
   5441 H          26.7303   18.1026   20.5201 H     907  UNL907      0.0521
   5442 H          28.5802   16.3447   19.2673 H     907  UNL907      0.2090
   5443 O          29.5876   17.2156   23.6228 O.3   908  UNL908     -0.3982
   5444 C          28.1865   17.3782   23.5005 C.3   908  UNL908      0.0330
   5445 H          27.6772   16.5745   24.0383 H     908  UNL908      0.0521
   5446 H          27.9073   17.3583   22.4443 H     908  UNL908      0.0521
   5447 H          27.9015   18.3403   23.9325 H     908  UNL908      0.0521
   5448 H          29.8105   16.3539   23.2312 H     908  UNL908      0.2090
   5449 O          28.5319   17.7135   26.6845 O.3   909  UNL909     -0.3982
   5450 C          27.1161   17.7135   26.6845 C.3   909  UNL909      0.0330
   5451 H          26.7508   16.8073   27.1741 H     909  UNL909      0.0521
   5452 H          26.7509   17.7570   25.6556 H     909  UNL909      0.0521
   5453 H          26.7608   18.5894   27.2323 H     909  UNL909      0.0521
   5454 H          28.8176   16.9254   26.1917 H     909  UNL909      0.2090
   5455 O          29.5892   17.4684   29.4524 O.3   910  UNL910     -0.3982
   5456 C          28.3349   17.3315   30.0945 C.3   910  UNL910      0.0330
   5457 H          28.4076   16.5762   30.8810 H     910  UNL910      0.0521
   5458 H          27.5795   17.0381   29.3615 H     910  UNL910      0.0521
   5459 H          28.0561   18.2903   30.5378 H     910  UNL910      0.0521
   5460 H          29.8099   16.6025   29.0689 H     910  UNL910      0.2090
   5461 O          28.4110   17.3433   33.4366 O.3   911  UNL911     -0.3982
   5462 C          26.9994   17.3993   33.3430 C.3   911  UNL911      0.0330
   5463 H          26.5631   16.5646   33.8972 H     911  UNL911      0.0521
   5464 H          26.7007   17.3493   32.2931 H     911  UNL911      0.0521
   5465 H          26.6519   18.3412   33.7739 H     911  UNL911      0.0521
   5466 H          28.6898   16.4972   33.0467 H     911  UNL911      0.2090
   5467 O          29.5722   17.0640   37.4679 O.3   912  UNL912     -0.3982
   5468 C          28.1660   17.0449   37.6310 C.3   912  UNL912      0.0330
   5469 H          27.8717   16.1343   38.1587 H     912  UNL912      0.0521
   5470 H          27.6841   17.0827   36.6510 H     912  UNL912      0.0521
   5471 H          27.8644   17.9165   38.2167 H     912  UNL912      0.0521
   5472 H          29.8098   16.2794   36.9448 H     912  UNL912      0.2090
   5473 O          29.5245   20.6555   -1.5840 O.3   913  UNL913     -0.3982
   5474 C          28.1087   20.6555   -1.5840 C.3   913  UNL913      0.0330
   5475 H          27.7434   21.5499   -2.0948 H     913  UNL913      0.0521
   5476 H          27.7435   20.6362   -0.5543 H     913  UNL913      0.0521
   5477 H          27.7534   19.7669   -2.1110 H     913  UNL913      0.0521
   5478 H          29.8102   21.4549   -1.1098 H     913  UNL913      0.2090
   5479 O          28.1446   21.0180    2.9763 O.3   914  UNL914     -0.3982
   5480 C          26.7288   21.0180    2.9763 C.3   914  UNL914      0.0330
   5481 H          26.3635   20.0468    2.6333 H     914  UNL914      0.0521
   5482 H          26.3636   21.8099    2.3178 H     914  UNL914      0.0521
   5483 H          26.3735   21.2000    3.9932 H     914  UNL914      0.0521
   5484 H          28.4303   20.8542    2.0613 H     914  UNL914      0.2090
   5485 O          29.5245   20.6987    6.5775 O.3   915  UNL915     -0.3982
   5486 C          28.1087   20.6987    6.5775 C.3   915  UNL915      0.0330
   5487 H          27.7434   19.9297    7.2627 H     915  UNL915      0.0521
   5488 H          27.7435   20.5040    5.5662 H     915  UNL915      0.0521
   5489 H          27.7534   21.6773    6.9087 H     915  UNL915      0.0521
   5490 H          29.8102   19.8183    6.2795 H     915  UNL915      0.2090
   5491 O          27.6185   20.8401    9.7554 O.3   916  UNL916     -0.3982
   5492 C          26.2027   20.8401    9.7554 C.3   916  UNL916      0.0330
   5493 H          25.8374   20.0711   10.4406 H     916  UNL916      0.0521
   5494 H          25.8375   20.6454    8.7441 H     916  UNL916      0.0521
   5495 H          25.8474   21.8187   10.0866 H     916  UNL916      0.0521
   5496 H          27.9042   19.9597    9.4574 H     916  UNL916      0.2090
   5497 O          29.8099   20.1284   11.7383 O.3   917  UNL917     -0.3982
   5498 C          29.0835   20.8614   12.7076 C.3   917  UNL917      0.0330
   5499 H          28.6490   20.1726   13.4364 H     917  UNL917      0.0521
   5500 H          28.2937   21.4344   12.2159 H     917  UNL917      0.0521
   5501 H          29.7641   21.5469   13.2181 H     917  UNL917      0.0521
   5502 H          29.1802   19.5293   11.3022 H     917  UNL917      0.2090
   5503 O          28.4716   20.9246   16.5963 O.3   918  UNL918     -0.3982
   5504 C          27.0653   20.9246   16.4321 C.3   918  UNL918      0.0330
   5505 H          26.6342   20.0792   16.9742 H     918  UNL918      0.0521
   5506 H          26.8217   20.8521   15.3694 H     918  UNL918      0.0521
   5507 H          26.6607   21.8566   16.8336 H     918  UNL918      0.0521
   5508 H          28.8018   20.0861   16.2311 H     918  UNL918      0.2090
   5509 O          29.6415   20.5804   19.9732 O.3   919  UNL919     -0.3982
   5510 C          28.2385   20.7047   20.1165 C.3   919  UNL919      0.0330
   5511 H          27.8614   19.8903   20.7401 H     919  UNL919      0.0521
   5512 H          27.7665   20.6721   19.1315 H     919  UNL919      0.0521
   5513 H          28.0135   21.6610   20.5944 H     919  UNL919      0.0521
   5514 H          29.8103   19.7231   19.5466 H     919  UNL919      0.2090
   5515 O          28.2941   20.8858   23.2283 O.3   920  UNL920     -0.3982
   5516 C          26.8783   20.8858   23.2283 C.3   920  UNL920      0.0330
   5517 H          26.5130   20.0425   23.8197 H     920  UNL920      0.0521
   5518 H          26.5131   20.8097   22.2012 H     920  UNL920      0.0521
   5519 H          26.5230   21.8194   23.6707 H     920  UNL920      0.0521
   5520 H          28.5798   20.0459   22.8302 H     920  UNL920      0.2090
   5521 O          29.8098   20.5336   27.1674 O.3   921  UNL921     -0.3982
   5522 C          28.6704   20.9381   26.4308 C.3   921  UNL921      0.0330
   5523 H          27.8599   21.1885   27.1198 H     921  UNL921      0.0521
   5524 H          28.3600   20.1292   25.7649 H     921  UNL921      0.0521
   5525 H          28.9257   21.8186   25.8365 H     921  UNL921      0.0521
   5526 H          29.5528   19.7512   27.6844 H     921  UNL921      0.2090
   5527 O          28.2029   20.7736   29.6839 O.3   922  UNL922     -0.3982
   5528 C          26.7990   20.7383   29.8635 C.3   922  UNL922      0.0330
   5529 H          26.4780   21.6292   30.4090 H     922  UNL922      0.0521
   5530 H          26.5245   19.8388   30.4198 H     922  UNL922      0.0521
   5531 H          26.3159   20.7198   28.8838 H     922  UNL922      0.0521
   5532 H          28.6039   20.7893   30.5696 H     922  UNL922      0.2090
   5533 O          27.9765   20.4798   34.3632 O.3   923  UNL923     -0.3982
   5534 C          29.3856   20.3773   34.4557 C.3   923  UNL923      0.0330
   5535 H          29.8109   21.3630   34.6605 H     923  UNL923      0.0521
   5536 H          29.7854   19.9839   33.5180 H     923  UNL923      0.0521
   5537 H          29.6395   19.6966   35.2716 H     923  UNL923      0.0521
   5538 H          27.7818   21.0897   33.6314 H     923  UNL923      0.2090
   5539 O          28.2234   21.5583   37.2311 O.3   924  UNL924     -0.3982
   5540 C          26.8709   21.1930   37.4357 C.3   924  UNL924      0.0330
   5541 H          26.8125   20.4311   38.2170 H     924  UNL924      0.0521
   5542 H          26.4518   20.8069   36.5033 H     924  UNL924      0.0521
   5543 H          26.3078   22.0756   37.7478 H     924  UNL924      0.0521
   5544 H          28.6975   20.7554   36.9552 H     924  UNL924      0.2090
   5545 O          29.3950   24.3851   -0.1801 O.3   925  UNL925     -0.3982
   5546 C          28.0642   24.4230   -0.6617 C.3   925  UNL925      0.0330
   5547 H          27.5305   23.5284   -0.3311 H     925  UNL925      0.0521
   5548 H          28.0721   24.4730   -1.7532 H     925  UNL925      0.0521
   5549 H          27.5668   25.3098   -0.2620 H     925  UNL925      0.0521
   5550 H          29.8106   23.5882   -0.5512 H     925  UNL925      0.2090
   5551 O          29.6241   24.1243    3.1511 O.3   926  UNL926     -0.3982
   5552 C          28.2179   24.2884    3.1511 C.3   926  UNL926      0.0330
   5553 H          27.7573   23.4932    3.7425 H     926  UNL926      0.0521
   5554 H          27.8463   24.2552    2.1241 H     926  UNL926      0.0521
   5555 H          27.9733   25.2569    3.5936 H     926  UNL926      0.0521
   5556 H          29.8105   23.2569    2.7530 H     926  UNL926      0.2090
   5557 O          28.5490   24.0857    6.3363 O.3   927  UNL927     -0.3982
   5558 C          27.1698   24.4031    6.3748 C.3   927  UNL927      0.0330
   5559 H          26.6095   23.5503    6.7659 H     927  UNL927      0.0521
   5560 H          26.8235   24.6496    5.3682 H     927  UNL927      0.0521
   5561 H          27.0217   25.2649    7.0299 H     927  UNL927      0.0521
   5562 H          28.6492   23.3181    5.7479 H     927  UNL927      0.2090
   5563 O          29.5245   24.0287   10.0668 O.3   928  UNL928     -0.3982
   5564 C          28.1087   24.0287   10.0668 C.3   928  UNL928      0.0330
   5565 H          27.7434   23.2597   10.7520 H     928  UNL928      0.0521
   5566 H          27.7435   23.8340    9.0555 H     928  UNL928      0.0521
   5567 H          27.7534   25.0073   10.3980 H     928  UNL928      0.0521
   5568 H          29.8102   23.1483    9.7688 H     928  UNL928      0.2090
   5569 O          28.2031   24.3374   13.2814 O.3   929  UNL929     -0.3982
   5570 C          26.7873   24.3374   13.2814 C.3   929  UNL929      0.0330
   5571 H          26.4220   23.4312   13.7710 H     929  UNL929      0.0521
   5572 H          26.4221   24.3809   12.2525 H     929  UNL929      0.0521
   5573 H          26.4320   25.2134   13.8292 H     929  UNL929      0.0521
   5574 H          28.4888   23.5493   12.7886 H     929  UNL929      0.2090
   5575 O          29.6640   24.1440   16.2941 O.3   930  UNL930     -0.3982
   5576 C          28.3323   24.1244   16.7746 C.3   930  UNL930      0.0330
   5577 H          28.2003   23.2758   17.4504 H     930  UNL930      0.0521
   5578 H          27.6412   24.0441   15.9321 H     930  UNL930      0.0521
   5579 H          28.1365   25.0527   17.3164 H     930  UNL930      0.0521
   5580 H          29.8082   23.3084   15.8182 H     930  UNL930      0.2090
   5581 O          28.3702   24.3160   19.8498 O.3   931  UNL931     -0.3982
   5582 C          26.9639   24.1562   19.8877 C.3   931  UNL931      0.0330
   5583 H          26.7062   23.3520   20.5812 H     931  UNL931      0.0521
   5584 H          26.5961   23.9200   18.8862 H     931  UNL931      0.0521
   5585 H          26.5094   25.0890   20.2297 H     931  UNL931      0.0521
   5586 H          28.7453   23.4730   19.5430 H     931  UNL931      0.2090
   5587 O          27.9566   23.8690   22.8506 O.3   932  UNL932     -0.3982
   5588 C          29.3663   23.9920   22.8958 C.3   932  UNL932      0.0330
   5589 H          29.6589   24.5061   23.8148 H     932  UNL932      0.0521
   5590 H          29.7119   24.5546   22.0251 H     932  UNL932      0.0521
   5591 H          29.8107   22.9941   22.8819 H     932  UNL932      0.0521
   5592 H          27.5906   24.7697   22.8642 H     932  UNL932      0.2090
   5593 O          29.5249   24.4604   26.4563 O.3   933  UNL933     -0.3982
   5594 C          28.1091   24.4604   26.4563 C.3   933  UNL933      0.0330
   5595 H          27.7438   24.1886   25.4629 H     933  UNL933      0.0521
   5596 H          27.7439   25.4528   26.7316 H     933  UNL933      0.0521
   5597 H          27.7538   23.7286   27.1856 H     933  UNL933      0.0521
   5598 H          29.8106   25.1188   25.8003 H     933  UNL933      0.2090
   5599 O          29.4513   24.1894   30.0338 O.3   934  UNL934     -0.3982
   5600 C          28.0905   23.9160   30.3130 C.3   934  UNL934      0.0330
   5601 H          28.0190   23.0310   30.9501 H     934  UNL934      0.0521
   5602 H          27.5520   23.7487   29.3770 H     934  UNL934      0.0521
   5603 H          27.6554   24.7727   30.8330 H     934  UNL934      0.0521
   5604 H          29.8101   23.4121   29.5727 H     934  UNL934      0.2090
   5605 O          29.7890   24.0566   33.0614 O.3   935  UNL935     -0.3982
   5606 C          28.5185   23.9802   33.6814 C.3   935  UNL935      0.0330
   5607 H          27.7382   23.9781   32.9162 H     935  UNL935      0.0521
   5608 H          28.3862   24.8346   34.3496 H     935  UNL935      0.0521
   5609 H          28.4606   23.0554   34.2602 H     935  UNL935      0.0521
   5610 H          29.8106   24.8868   32.5556 H     935  UNL935      0.2090
   5611 O          27.9965   24.4894   37.7580 O.3   936  UNL936     -0.3982
   5612 C          29.4105   24.5193   37.6934 C.3   936  UNL936      0.0330
   5613 H          29.7790   25.4295   38.1730 H     936  UNL936      0.0521
   5614 H          29.7290   24.4908   36.6485 H     936  UNL936      0.0521
   5615 H          29.8087   23.6472   38.2173 H     936  UNL936      0.0521
   5616 H          27.6722   25.2747   37.2851 H     936  UNL936      0.2090
   5617 O          27.8720   28.1570   -1.4814 O.3   937  UNL937     -0.3982
   5618 C          29.2793   28.0102   -1.5303 C.3   937  UNL937      0.0330
   5619 H          29.5337   27.1195   -2.1101 H     937  UNL937      0.0521
   5620 H          29.6728   27.9217   -0.5148 H     937  UNL937      0.0521
   5621 H          29.7119   28.8909   -2.0109 H     937  UNL937      0.0521
   5622 H          27.5166   27.3612   -1.0502 H     937  UNL937      0.2090
   5623 O          27.9371   27.8016    3.0316 O.3   938  UNL938     -0.3982
   5624 C          29.3352   27.7464    3.2478 C.3   938  UNL938      0.0330
   5625 H          29.5384   27.7298    4.3215 H     938  UNL938      0.0521
   5626 H          29.8102   28.6174    2.7897 H     938  UNL938      0.0521
   5627 H          29.7298   26.8362    2.7903 H     938  UNL938      0.0521
   5628 H          27.6155   28.6192    3.4484 H     938  UNL938      0.2090
   5629 O          26.3693   28.9841    6.7385 O.3   939  UNL939     -0.3982
   5630 C          25.4359   28.6613    5.7241 C.3   939  UNL939      0.0330
   5631 H          25.1909   27.5976    5.7782 H     939  UNL939      0.0521
   5632 H          25.8623   28.8987    4.7464 H     939  UNL939      0.0521
   5633 H          24.5283   29.2501    5.8760 H     939  UNL939      0.0521
   5634 H          27.1635   28.4466    6.5775 H     939  UNL939      0.2090
   5635 O          27.9955   27.7514    8.9782 O.3   940  UNL940     -0.3982
   5636 C          29.4083   27.7481    8.8859 C.3   940  UNL940      0.0330
   5637 H          29.8012   26.8294    9.3284 H     940  UNL940      0.0521
   5638 H          29.8105   28.6186    9.4099 H     940  UNL940      0.0521
   5639 H          29.6957   27.7947    7.8329 H     940  UNL940      0.0521
   5640 H          27.7709   27.7095    9.9233 H     940  UNL940      0.2090
   5641 O          29.5245   27.6397   13.1253 O.3   941  UNL941     -0.3982
   5642 C          28.1087   27.6397   13.1253 C.3   941  UNL941      0.0330
   5643 H          27.7434   26.8707   13.8105 H     941  UNL941      0.0521
   5644 H          27.7435   27.4450   12.1140 H     941  UNL941      0.0521
   5645 H          27.7534   28.6183   13.4565 H     941  UNL941      0.0521
   5646 H          29.8102   26.7593   12.8273 H     941  UNL941      0.2090
   5647 O          29.8103   28.6190   16.2536 O.3   942  UNL942     -0.3982
   5648 C          29.1429   27.3717   16.3122 C.3   942  UNL942      0.0330
   5649 H          28.1406   27.4735   15.8885 H     942  UNL942      0.0521
   5650 H          29.0788   27.0403   17.3514 H     942  UNL942      0.0521
   5651 H          29.7084   26.6385   15.7324 H     942  UNL942      0.0521
   5652 H          29.2855   29.2487   16.7766 H     942  UNL942      0.2090
   5653 O          29.4389   28.4058   20.5002 O.3   943  UNL943     -0.3982
   5654 C          28.1100   28.4058   20.0117 C.3   943  UNL943      0.0330
   5655 H          27.5308   27.6368   20.5288 H     943  UNL943      0.0521
   5656 H          28.1161   28.2111   18.9365 H     943  UNL943      0.0521
   5657 H          27.6623   29.3844   20.2000 H     943  UNL943      0.0521
   5658 H          29.8099   27.5254   20.3190 H     943  UNL943      0.2090
   5659 O          29.5245   28.0905   23.6902 O.3   944  UNL944     -0.3982
   5660 C          28.1087   28.0905   23.6902 C.3   944  UNL944      0.0330
   5661 H          27.7434   27.1843   24.1798 H     944  UNL944      0.0521
   5662 H          27.7435   28.1340   22.6612 H     944  UNL944      0.0521
   5663 H          27.7534   28.9665   24.2379 H     944  UNL944      0.0521
   5664 H          29.8102   27.3024   23.1974 H     944  UNL944      0.2090
   5665 O          28.8938   28.0661   26.9653 O.3   945  UNL945     -0.3982
   5666 C          27.4875   28.2292   26.9465 C.3   945  UNL945      0.0330
   5667 H          27.0814   28.0126   27.9377 H     945  UNL945      0.0521
   5668 H          27.0514   27.5535   26.2068 H     945  UNL945      0.0521
   5669 H          27.2532   29.2616   26.6767 H     945  UNL945      0.0521
   5670 H          29.0709   27.1412   27.2076 H     945  UNL945      0.2090
   5671 O          29.1319   28.6193   30.0528 O.3   946  UNL946     -0.3982
   5672 C          28.9280   27.2183   30.0718 C.3   946  UNL946      0.0330
   5673 H          28.0543   26.9681   29.4649 H     946  UNL946      0.0521
   5674 H          28.7772   26.8851   31.1015 H     946  UNL946      0.0521
   5675 H          29.8103   26.7253   29.6571 H     946  UNL946      0.0521
   5676 H          28.3332   29.0293   30.4264 H     946  UNL946      0.2090
   5677 O          27.8850   27.3737   33.7273 O.3   947  UNL947     -0.3982
   5678 C          28.9592   28.2923   33.6446 C.3   947  UNL947      0.0330
   5679 H          28.6563   29.2486   34.0782 H     947  UNL947      0.0521
   5680 H          29.2437   28.4282   32.5984 H     947  UNL947      0.0521
   5681 H          29.8102   27.8950   34.2026 H     947  UNL947      0.0521
   5682 H          27.1451   27.7532   33.2233 H     947  UNL947      0.2090
   5683 O          28.6636   28.3301   38.1130 O.3   948  UNL948     -0.3982
   5684 C          27.3050   28.1518   37.7568 C.3   948  UNL948      0.0330
   5685 H          26.9569   27.1810   38.1182 H     948  UNL948      0.0521
   5686 H          27.2021   28.2064   36.6703 H     948  UNL948      0.0521
   5687 H          26.7101   28.9442   38.2172 H     948  UNL948      0.0521
   5688 H          29.1662   27.6130   37.6903 H     948  UNL948      0.2090
   5689 O          29.5249   32.3666   -1.4136 O.3   949  UNL949     -0.3982
   5690 C          28.1091   32.3666   -1.4136 C.3   949  UNL949      0.0330
   5691 H          27.7438   32.5958   -0.4094 H     949  UNL949      0.0521
   5692 H          27.7439   31.3869   -1.7310 H     949  UNL949      0.0521
   5693 H          27.7538   33.1288   -2.1110 H     949  UNL949      0.0521
   5694 H          29.8106   31.6808   -0.7862 H     949  UNL949      0.2090
   5695 O          29.3289   32.3470    2.6206 O.3   950  UNL950     -0.3982
   5696 C          27.9512   32.0208    2.6206 C.3   950  UNL950      0.0330
   5697 H          27.6410   31.7454    3.6317 H     950  UNL950      0.0521
   5698 H          27.7727   31.1896    1.9341 H     950  UNL950      0.0521
   5699 H          27.3798   32.8918    2.2910 H     950  UNL950      0.0521
   5700 H          29.8098   31.5556    2.9171 H     950  UNL950      0.2090
   5701 O          28.2864   31.1929    6.1098 O.3   951  UNL951     -0.3982
   5702 C          28.7697   32.5236    6.1098 C.3   951  UNL951      0.0330
   5703 H          28.1716   33.1295    6.7950 H     951  UNL951      0.0521
   5704 H          28.7114   32.9334    5.0985 H     951  UNL951      0.0521
   5705 H          29.8108   32.5235    6.4410 H     951  UNL951      0.0521
   5706 H          27.3614   31.2249    5.8118 H     951  UNL951      0.2090
   5707 O          27.9427   32.3811    9.4234 O.3   952  UNL952     -0.3982
   5708 C          29.3524   32.3358    9.3003 C.3   952  UNL952      0.0330
   5709 H          29.6526   31.3670    8.8935 H     952  UNL952      0.0521
   5710 H          29.8097   32.4888   10.2809 H     952  UNL952      0.0521
   5711 H          29.6755   33.1292    8.6223 H     952  UNL952      0.0521
   5712 H          27.6858   31.6662   10.0304 H     952  UNL952      0.2090
   5713 O          28.9360   32.5656   12.7485 O.3   953  UNL953     -0.3982
   5714 C          27.5202   32.5656   12.7485 C.3   953  UNL953      0.0330
   5715 H          27.1549   33.1290   13.6108 H     953  UNL953      0.0521
   5716 H          27.1550   31.5367   12.7908 H     953  UNL953      0.0521
   5717 H          27.1649   33.0386   11.8300 H     953  UNL953      0.0521
   5718 H          29.2217   32.1402   13.5749 H     953  UNL953      0.2090
   5719 O          29.5240   32.1513   16.3907 O.3   954  UNL954     -0.3982
   5720 C          28.1082   32.1513   16.3907 C.3   954  UNL954      0.0330
   5721 H          27.7429   31.3823   17.0759 H     954  UNL954      0.0521
   5722 H          27.7430   31.9566   15.3794 H     954  UNL954      0.0521
   5723 H          27.7529   33.1299   16.7219 H     954  UNL954      0.0521
   5724 H          29.8097   31.2709   16.0927 H     954  UNL954      0.2090
   5725 O          29.4501   32.5534   19.7785 O.3   955  UNL955     -0.3982
   5726 C          28.0343   32.5534   19.7785 C.3   955  UNL955      0.0330
   5727 H          27.6690   33.0129   20.7003 H     955  UNL955      0.0521
   5728 H          27.6691   31.5264   19.7012 H     955  UNL955      0.0521
   5729 H          27.6790   33.1296   18.9210 H     955  UNL955      0.0521
   5730 H          29.7358   32.0349   20.5499 H     955  UNL955      0.2090
   5731 O          28.6957   31.2379   23.3359 O.3   956  UNL956     -0.3982
   5732 C          28.8949   32.6388   23.3830 C.3   956  UNL956      0.0330
   5733 H          28.0480   33.1114   23.8867 H     956  UNL956      0.0521
   5734 H          28.9918   33.0283   22.3667 H     956  UNL956      0.0521
   5735 H          29.8109   32.8488   23.9402 H     956  UNL956      0.0521
   5736 H          27.8764   31.0825   22.8357 H     956  UNL956      0.2090
   5737 O          28.6364   32.2031   26.5643 O.3   957  UNL957     -0.3982
   5738 C          27.2206   32.2031   26.5643 C.3   957  UNL957      0.0330
   5739 H          26.8553   32.1144   25.5381 H     957  UNL957      0.0521
   5740 H          26.8554   33.1298   27.0135 H     957  UNL957      0.0521
   5741 H          26.8653   31.3521   27.1500 H     957  UNL957      0.0521
   5742 H          28.9221   32.9687   26.0373 H     957  UNL957      0.2090
   5743 O          27.9427   32.0200   29.8283 O.3   958  UNL958     -0.3982
   5744 C          29.3524   32.0502   29.7007 C.3   958  UNL958      0.0330
   5745 H          29.6526   31.4669   28.8267 H     958  UNL958      0.0521
   5746 H          29.8097   31.6366   30.6028 H     958  UNL958      0.0521
   5747 H          29.6755   33.0861   29.5732 H     958  UNL958      0.0521
   5748 H          27.6858   31.0889   29.9399 H     958  UNL958      0.2090
   5749 O          28.2974   32.6158   33.2279 O.3   959  UNL959     -0.3982
   5750 C          26.9197   32.5780   32.9039 C.3   959  UNL959      0.0330
   5751 H          26.3519   33.1287   33.6579 H     959  UNL959      0.0521
   5752 H          26.5821   31.5395   32.8647 H     959  UNL959      0.0521
   5753 H          26.7715   33.0441   31.9270 H     959  UNL959      0.0521
   5754 H          28.3977   32.1955   34.0990 H     959  UNL959      0.2090
   5755 O          29.4562   31.2674   38.2168 O.3   960  UNL960     -0.3982
   5756 C          28.9867   32.3933   37.4982 C.3   960  UNL960      0.0330
   5757 H          28.1886   32.0857   36.8180 H     960  UNL960      0.0521
   5758 H          29.8109   32.8358   36.9335 H     960  UNL960      0.0521
   5759 H          28.5963   33.1287   38.2055 H     960  UNL960      0.0521
   5760 H          29.7962   30.6328   37.5632 H     960  UNL960      0.2090
@<TRIPOS>BOND
     1     1     2    1
     2     1     6    1
     3     2     3    1
     4     2     4    1
     5     2     5    1
     6     7     8    1
     7     7    12    1
     8     8     9    1
     9     8    10    1
    10     8    11    1
    11    13    14    1
    12    13    18    1
    13    14    15    1
    14    14    16    1
    15    14    17    1
    16    19    20    1
    17    19    24    1
    18    20    21    1
    19    20    22    1
    20    20    23    1
    21    25    26    1
    22    25    30    1
    23    26    27    1
    24    26    28    1
    25    26    29    1
    26    31    32    1
    27    31    36    1
    28    32    33    1
    29    32    34    1
    30    32    35    1
    31    37    38    1
    32    37    42    1
    33    38    39    1
    34    38    40    1
    35    38    41    1
    36    43    44    1
    37    43    48    1
    38    44    45    1
    39    44    46    1
    40    44    47    1
    41    49    50    1
    42    49    54    1
    43    50    51    1
    44    50    52    1
    45    50    53    1
    46    55    56    1
    47    55    60    1
    48    56    57    1
    49    56    58    1
    50    56    59    1
    51    61    62    1
    52    61    66    1
    53    62    63    1
    54    62    64    1
    55    62    65    1
    56    67    68    1
    57    67    72    1
    58    68    69    1
    59    68    70    1
    60    68    71    1
    61    73    74    1
    62    73    78    1
    63    74    75    1
    64    74    76    1
    65    74    77    1
    66    79    80    1
    67    79    84    1
    68    80    81    1
    69    80    82    1
    70    80    83    1
    71    85    86    1
    72    85    90    1
    73    86    87    1
    74    86    88    1
    75    86    89    1
    76    91    92    1
    77    91    96    1
    78    92    93    1
    79    92    94    1
    80    92    95    1
    81    97    98    1
    82    97   102    1
    83    98    99    1
    84    98   100    1
    85    98   101    1
    86   103   104    1
    87   103   108    1
    88   104   105    1
    89   104   106    1
    90   104   107    1
    91   109   110    1
    92   109   114    1
    93   110   111    1
    94   110   112    1
    95   110   113    1
    96   115   116    1
    97   115   120    1
    98   116   117    1
    99   116   118    1
   100   116   119    1
   101   121   122    1
   102   121   126    1
   103   122   123    1
   104   122   124    1
   105   122   125    1
   106   127   128    1
   107   127   132    1
   108   128   129    1
   109   128   130    1
   110   128   131    1
   111   133   134    1
   112   133   138    1
   113   134   135    1
   114   134   136    1
   115   134   137    1
   116   139   140    1
   117   139   144    1
   118   140   141    1
   119   140   142    1
   120   140   143    1
   121   145   146    1
   122   145   150    1
   123   146   147    1
   124   146   148    1
   125   146   149    1
   126   151   152    1
   127   151   156    1
   128   152   153    1
   129   152   154    1
   130   152   155    1
   131   157   158    1
   132   157   162    1
   133   158   159    1
   134   158   160    1
   135   158   161    1
   136   163   164    1
   137   163   168    1
   138   164   165    1
   139   164   166    1
   140   164   167    1
   141   169   170    1
   142   169   174    1
   143   170   171    1
   144   170   172    1
   145   170   173    1
   146   175   176    1
   147   175   180    1
   148   176   177    1
   149   176   178    1
   150   176   179    1
   151   181   182    1
   152   181   186    1
   153   182   183    1
   154   182   184    1
   155   182   185    1
   156   187   188    1
   157   187   192    1
   158   188   189    1
   159   188   190    1
   160   188   191    1
   161   193   194    1
   162   193   198    1
   163   194   195    1
   164   194   196    1
   165   194   197    1
   166   199   200    1
   167   199   204    1
   168   200   201    1
   169   200   202    1
   170   200   203    1
   171   205   206    1
   172   205   210    1
   173   206   207    1
   174   206   208    1
   175   206   209    1
   176   211   212    1
   177   211   216    1
   178   212   213    1
   179   212   214    1
   180   212   215    1
   181   217   218    1
   182   217   222    1
   183   218   219    1
   184   218   220    1
   185   218   221    1
   186   223   224    1
   187   223   228    1
   188   224   225    1
   189   224   226    1
   190   224   227    1
   191   229   230    1
   192   229   234    1
   193   230   231    1
   194   230   232    1
   195   230   233    1
   196   235   236    1
   197   235   240    1
   198   236   237    1
   199   236   238    1
   200   236   239    1
   201   241   242    1
   202   241   246    1
   203   242   243    1
   204   242   244    1
   205   242   245    1
   206   247   248    1
   207   247   252    1
   208   248   249    1
   209   248   250    1
   210   248   251    1
   211   253   254    1
   212   253   258    1
   213   254   255    1
   214   254   256    1
   215   254   257    1
   216   259   260    1
   217   259   264    1
   218   260   261    1
   219   260   262    1
   220   260   263    1
   221   265   266    1
   222   265   270    1
   223   266   267    1
   224   266   268    1
   225   266   269    1
   226   271   272    1
   227   271   276    1
   228   272   273    1
   229   272   274    1
   230   272   275    1
   231   277   278    1
   232   277   282    1
   233   278   279    1
   234   278   280    1
   235   278   281    1
   236   283   284    1
   237   283   288    1
   238   284   285    1
   239   284   286    1
   240   284   287    1
   241   289   290    1
   242   289   294    1
   243   290   291    1
   244   290   292    1
   245   290   293    1
   246   295   296    1
   247   295   300    1
   248   296   297    1
   249   296   298    1
   250   296   299    1
   251   301   302    1
   252   301   306    1
   253   302   303    1
   254   302   304    1
   255   302   305    1
   256   307   308    1
   257   307   312    1
   258   308   309    1
   259   308   310    1
   260   308   311    1
   261   313   314    1
   262   313   318    1
   263   314   315    1
   264   314   316    1
   265   314   317    1
   266   319   320    1
   267   319   324    1
   268   320   321    1
   269   320   322    1
   270   320   323    1
   271   325   326    1
   272   325   330    1
   273   326   327    1
   274   326   328    1
   275   326   329    1
   276   331   332    1
   277   331   336    1
   278   332   333    1
   279   332   334    1
   280   332   335    1
   281   337   338    1
   282   337   342    1
   283   338   339    1
   284   338   340    1
   285   338   341    1
   286   343   344    1
   287   343   348    1
   288   344   345    1
   289   344   346    1
   290   344   347    1
   291   349   350    1
   292   349   354    1
   293   350   351    1
   294   350   352    1
   295   350   353    1
   296   355   356    1
   297   355   360    1
   298   356   357    1
   299   356   358    1
   300   356   359    1
   301   361   362    1
   302   361   366    1
   303   362   363    1
   304   362   364    1
   305   362   365    1
   306   367   368    1
   307   367   372    1
   308   368   369    1
   309   368   370    1
   310   368   371    1
   311   373   374    1
   312   373   378    1
   313   374   375    1
   314   374   376    1
   315   374   377    1
   316   379   380    1
   317   379   384    1
   318   380   381    1
   319   380   382    1
   320   380   383    1
   321   385   386    1
   322   385   390    1
   323   386   387    1
   324   386   388    1
   325   386   389    1
   326   391   392    1
   327   391   396    1
   328   392   393    1
   329   392   394    1
   330   392   395    1
   331   397   398    1
   332   397   402    1
   333   398   399    1
   334   398   400    1
   335   398   401    1
   336   403   404    1
   337   403   408    1
   338   404   405    1
   339   404   406    1
   340   404   407    1
   341   409   410    1
   342   409   414    1
   343   410   411    1
   344   410   412    1
   345   410   413    1
   346   415   416    1
   347   415   420    1
   348   416   417    1
   349   416   418    1
   350   416   419    1
   351   421   422    1
   352   421   426    1
   353   422   423    1
   354   422   424    1
   355   422   425    1
   356   427   428    1
   357   427   432    1
   358   428   429    1
   359   428   430    1
   360   428   431    1
   361   433   434    1
   362   433   438    1
   363   434   435    1
   364   434   436    1
   365   434   437    1
   366   439   440    1
   367   439   444    1
   368   440   441    1
   369   440   442    1
   370   440   443    1
   371   445   446    1
   372   445   450    1
   373   446   447    1
   374   446   448    1
   375   446   449    1
   376   451   452    1
   377   451   456    1
   378   452   453    1
   379   452   454    1
   380   452   455    1
   381   457   458    1
   382   457   462    1
   383   458   459    1
   384   458   460    1
   385   458   461    1
   386   463   464    1
   387   463   468    1
   388   464   465    1
   389   464   466    1
   390   464   467    1
   391   469   470    1
   392   469   474    1
   393   470   471    1
   394   470   472    1
   395   470   473    1
   396   475   476    1
   397   475   480    1
   398   476   477    1
   399   476   478    1
   400   476   479    1
   401   481   482    1
   402   481   486    1
   403   482   483    1
   404   482   484    1
   405   482   485    1
   406   487   488    1
   407   487   492    1
   408   488   489    1
   409   488   490    1
   410   488   491    1
   411   493   494    1
   412   493   498    1
   413   494   495    1
   414   494   496    1
   415   494   497    1
   416   499   500    1
   417   499   504    1
   418   500   501    1
   419   500   502    1
   420   500   503    1
   421   505   506    1
   422   505   510    1
   423   506   507    1
   424   506   508    1
   425   506   509    1
   426   511   512    1
   427   511   516    1
   428   512   513    1
   429   512   514    1
   430   512   515    1
   431   517   518    1
   432   517   522    1
   433   518   519    1
   434   518   520    1
   435   518   521    1
   436   523   524    1
   437   523   528    1
   438   524   525    1
   439   524   526    1
   440   524   527    1
   441   529   530    1
   442   529   534    1
   443   530   531    1
   444   530   532    1
   445   530   533    1
   446   535   536    1
   447   535   540    1
   448   536   537    1
   449   536   538    1
   450   536   539    1
   451   541   542    1
   452   541   546    1
   453   542   543    1
   454   542   544    1
   455   542   545    1
   456   547   548    1
   457   547   552    1
   458   548   549    1
   459   548   550    1
   460   548   551    1
   461   553   554    1
   462   553   558    1
   463   554   555    1
   464   554   556    1
   465   554   557    1
   466   559   560    1
   467   559   564    1
   468   560   561    1
   469   560   562    1
   470   560   563    1
   471   565   566    1
   472   565   570    1
   473   566   567    1
   474   566   568    1
   475   566   569    1
   476   571   572    1
   477   571   576    1
   478   572   573    1
   479   572   574    1
   480   572   575    1
   481   577   578    1
   482   577   582    1
   483   578   579    1
   484   578   580    1
   485   578   581    1
   486   583   584    1
   487   583   588    1
   488   584   585    1
   489   584   586    1
   490   584   587    1
   491   589   590    1
   492   589   594    1
   493   590   591    1
   494   590   592    1
   495   590   593    1
   496   595   596    1
   497   595   600    1
   498   596   597    1
   499   596   598    1
   500   596   599    1
   501   601   602    1
   502   601   606    1
   503   602   603    1
   504   602   604    1
   505   602   605    1
   506   607   608    1
   507   607   612    1
   508   608   609    1
   509   608   610    1
   510   608   611    1
   511   613   614    1
   512   613   618    1
   513   614   615    1
   514   614   616    1
   515   614   617    1
   516   619   620    1
   517   619   624    1
   518   620   621    1
   519   620   622    1
   520   620   623    1
   521   625   626    1
   522   625   630    1
   523   626   627    1
   524   626   628    1
   525   626   629    1
   526   631   632    1
   527   631   636    1
   528   632   633    1
   529   632   634    1
   530   632   635    1
   531   637   638    1
   532   637   642    1
   533   638   639    1
   534   638   640    1
   535   638   641    1
   536   643   644    1
   537   643   648    1
   538   644   645    1
   539   644   646    1
   540   644   647    1
   541   649   650    1
   542   649   654    1
   543   650   651    1
   544   650   652    1
   545   650   653    1
   546   655   656    1
   547   655   660    1
   548   656   657    1
   549   656   658    1
   550   656   659    1
   551   661   662    1
   552   661   666    1
   553   662   663    1
   554   662   664    1
   555   662   665    1
   556   667   668    1
   557   667   672    1
   558   668   669    1
   559   668   670    1
   560   668   671    1
   561   673   674    1
   562   673   678    1
   563   674   675    1
   564   674   676    1
   565   674   677    1
   566   679   680    1
   567   679   684    1
   568   680   681    1
   569   680   682    1
   570   680   683    1
   571   685   686    1
   572   685   690    1
   573   686   687    1
   574   686   688    1
   575   686   689    1
   576   691   692    1
   577   691   696    1
   578   692   693    1
   579   692   694    1
   580   692   695    1
   581   697   698    1
   582   697   702    1
   583   698   699    1
   584   698   700    1
   585   698   701    1
   586   703   704    1
   587   703   708    1
   588   704   705    1
   589   704   706    1
   590   704   707    1
   591   709   710    1
   592   709   714    1
   593   710   711    1
   594   710   712    1
   595   710   713    1
   596   715   716    1
   597   715   720    1
   598   716   717    1
   599   716   718    1
   600   716   719    1
   601   721   722    1
   602   721   726    1
   603   722   723    1
   604   722   724    1
   605   722   725    1
   606   727   728    1
   607   727   732    1
   608   728   729    1
   609   728   730    1
   610   728   731    1
   611   733   734    1
   612   733   738    1
   613   734   735    1
   614   734   736    1
   615   734   737    1
   616   739   740    1
   617   739   744    1
   618   740   741    1
   619   740   742    1
   620   740   743    1
   621   745   746    1
   622   745   750    1
   623   746   747    1
   624   746   748    1
   625   746   749    1
   626   751   752    1
   627   751   756    1
   628   752   753    1
   629   752   754    1
   630   752   755    1
   631   757   758    1
   632   757   762    1
   633   758   759    1
   634   758   760    1
   635   758   761    1
   636   763   764    1
   637   763   768    1
   638   764   765    1
   639   764   766    1
   640   764   767    1
   641   769   770    1
   642   769   774    1
   643   770   771    1
   644   770   772    1
   645   770   773    1
   646   775   776    1
   647   775   780    1
   648   776   777    1
   649   776   778    1
   650   776   779    1
   651   781   782    1
   652   781   786    1
   653   782   783    1
   654   782   784    1
   655   782   785    1
   656   787   788    1
   657   787   792    1
   658   788   789    1
   659   788   790    1
   660   788   791    1
   661   793   794    1
   662   793   798    1
   663   794   795    1
   664   794   796    1
   665   794   797    1
   666   799   800    1
   667   799   804    1
   668   800   801    1
   669   800   802    1
   670   800   803    1
   671   805   806    1
   672   805   810    1
   673   806   807    1
   674   806   808    1
   675   806   809    1
   676   811   812    1
   677   811   816    1
   678   812   813    1
   679   812   814    1
   680   812   815    1
   681   817   818    1
   682   817   822    1
   683   818   819    1
   684   818   820    1
   685   818   821    1
   686   823   824    1
   687   823   828    1
   688   824   825    1
   689   824   826    1
   690   824   827    1
   691   829   830    1
   692   829   834    1
   693   830   831    1
   694   830   832    1
   695   830   833    1
   696   835   836    1
   697   835   840    1
   698   836   837    1
   699   836   838    1
   700   836   839    1
   701   841   842    1
   702   841   846    1
   703   842   843    1
   704   842   844    1
   705   842   845    1
   706   847   848    1
   707   847   852    1
   708   848   849    1
   709   848   850    1
   710   848   851    1
   711   853   854    1
   712   853   858    1
   713   854   855    1
   714   854   856    1
   715   854   857    1
   716   859   860    1
   717   859   864    1
   718   860   861    1
   719   860   862    1
   720   860   863    1
   721   865   866    1
   722   865   870    1
   723   866   867    1
   724   866   868    1
   725   866   869    1
   726   871   872    1
   727   871   876    1
   728   872   873    1
   729   872   874    1
   730   872   875    1
   731   877   878    1
   732   877   882    1
   733   878   879    1
   734   878   880    1
   735   878   881    1
   736   883   884    1
   737   883   888    1
   738   884   885    1
   739   884   886    1
   740   884   887    1
   741   889   890    1
   742   889   894    1
   743   890   891    1
   744   890   892    1
   745   890   893    1
   746   895   896    1
   747   895   900    1
   748   896   897    1
   749   896   898    1
   750   896   899    1
   751   901   902    1
   752   901   906    1
   753   902   903    1
   754   902   904    1
   755   902   905    1
   756   907   908    1
   757   907   912    1
   758   908   909    1
   759   908   910    1
   760   908   911    1
   761   913   914    1
   762   913   918    1
   763   914   915    1
   764   914   916    1
   765   914   917    1
   766   919   920    1
   767   919   924    1
   768   920   921    1
   769   920   922    1
   770   920   923    1
   771   925   926    1
   772   925   930    1
   773   926   927    1
   774   926   928    1
   775   926   929    1
   776   931   932    1
   777   931   936    1
   778   932   933    1
   779   932   934    1
   780   932   935    1
   781   937   938    1
   782   937   942    1
   783   938   939    1
   784   938   940    1
   785   938   941    1
   786   943   944    1
   787   943   948    1
   788   944   945    1
   789   944   946    1
   790   944   947    1
   791   949   950    1
   792   949   954    1
   793   950   951    1
   794   950   952    1
   795   950   953    1
   796   955   956    1
   797   955   960    1
   798   956   957    1
   799   956   958    1
   800   956   959    1
   801   961   962    1
   802   961   966    1
   803   962   963    1
   804   962   964    1
   805   962   965    1
   806   967   968    1
   807   967   972    1
   808   968   969    1
   809   968   970    1
   810   968   971    1
   811   973   974    1
   812   973   978    1
   813   974   975    1
   814   974   976    1
   815   974   977    1
   816   979   980    1
   817   979   984    1
   818   980   981    1
   819   980   982    1
   820   980   983    1
   821   985   986    1
   822   985   990    1
   823   986   987    1
   824   986   988    1
   825   986   989    1
   826   991   992    1
   827   991   996    1
   828   992   993    1
   829   992   994    1
   830   992   995    1
   831   997   998    1
   832   997  1002    1
   833   998   999    1
   834   998  1000    1
   835   998  1001    1
   836  1003  1004    1
   837  1003  1008    1
   838  1004  1005    1
   839  1004  1006    1
   840  1004  1007    1
   841  1009  1010    1
   842  1009  1014    1
   843  1010  1011    1
   844  1010  1012    1
   845  1010  1013    1
   846  1015  1016    1
   847  1015  1020    1
   848  1016  1017    1
   849  1016  1018    1
   850  1016  1019    1
   851  1021  1022    1
   852  1021  1026    1
   853  1022  1023    1
   854  1022  1024    1
   855  1022  1025    1
   856  1027  1028    1
   857  1027  1032    1
   858  1028  1029    1
   859  1028  1030    1
   860  1028  1031    1
   861  1033  1034    1
   862  1033  1038    1
   863  1034  1035    1
   864  1034  1036    1
   865  1034  1037    1
   866  1039  1040    1
   867  1039  1044    1
   868  1040  1041    1
   869  1040  1042    1
   870  1040  1043    1
   871  1045  1046    1
   872  1045  1050    1
   873  1046  1047    1
   874  1046  1048    1
   875  1046  1049    1
   876  1051  1052    1
   877  1051  1056    1
   878  1052  1053    1
   879  1052  1054    1
   880  1052  1055    1
   881  1057  1058    1
   882  1057  1062    1
   883  1058  1059    1
   884  1058  1060    1
   885  1058  1061    1
   886  1063  1064    1
   887  1063  1068    1
   888  1064  1065    1
   889  1064  1066    1
   890  1064  1067    1
   891  1069  1070    1
   892  1069  1074    1
   893  1070  1071    1
   894  1070  1072    1
   895  1070  1073    1
   896  1075  1076    1
   897  1075  1080    1
   898  1076  1077    1
   899  1076  1078    1
   900  1076  1079    1
   901  1081  1082    1
   902  1081  1086    1
   903  1082  1083    1
   904  1082  1084    1
   905  1082  1085    1
   906  1087  1088    1
   907  1087  1092    1
   908  1088  1089    1
   909  1088  1090    1
   910  1088  1091    1
   911  1093  1094    1
   912  1093  1098    1
   913  1094  1095    1
   914  1094  1096    1
   915  1094  1097    1
   916  1099  1100    1
   917  1099  1104    1
   918  1100  1101    1
   919  1100  1102    1
   920  1100  1103    1
   921  1105  1106    1
   922  1105  1110    1
   923  1106  1107    1
   924  1106  1108    1
   925  1106  1109    1
   926  1111  1112    1
   927  1111  1116    1
   928  1112  1113    1
   929  1112  1114    1
   930  1112  1115    1
   931  1117  1118    1
   932  1117  1122    1
   933  1118  1119    1
   934  1118  1120    1
   935  1118  1121    1
   936  1123  1124    1
   937  1123  1128    1
   938  1124  1125    1
   939  1124  1126    1
   940  1124  1127    1
   941  1129  1130    1
   942  1129  1134    1
   943  1130  1131    1
   944  1130  1132    1
   945  1130  1133    1
   946  1135  1136    1
   947  1135  1140    1
   948  1136  1137    1
   949  1136  1138    1
   950  1136  1139    1
   951  1141  1142    1
   952  1141  1146    1
   953  1142  1143    1
   954  1142  1144    1
   955  1142  1145    1
   956  1147  1148    1
   957  1147  1152    1
   958  1148  1149    1
   959  1148  1150    1
   960  1148  1151    1
   961  1153  1154    1
   962  1153  1158    1
   963  1154  1155    1
   964  1154  1156    1
   965  1154  1157    1
   966  1159  1160    1
   967  1159  1164    1
   968  1160  1161    1
   969  1160  1162    1
   970  1160  1163    1
   971  1165  1166    1
   972  1165  1170    1
   973  1166  1167    1
   974  1166  1168    1
   975  1166  1169    1
   976  1171  1172    1
   977  1171  1176    1
   978  1172  1173    1
   979  1172  1174    1
   980  1172  1175    1
   981  1177  1178    1
   982  1177  1182    1
   983  1178  1179    1
   984  1178  1180    1
   985  1178  1181    1
   986  1183  1184    1
   987  1183  1188    1
   988  1184  1185    1
   989  1184  1186    1
   990  1184  1187    1
   991  1189  1190    1
   992  1189  1194    1
   993  1190  1191    1
   994  1190  1192    1
   995  1190  1193    1
   996  1195  1196    1
   997  1195  1200    1
   998  1196  1197    1
   999  1196  1198    1
  1000  1196  1199    1
  1001  1201  1202    1
  1002  1201  1206    1
  1003  1202  1203    1
  1004  1202  1204    1
  1005  1202  1205    1
  1006  1207  1208    1
  1007  1207  1212    1
  1008  1208  1209    1
  1009  1208  1210    1
  1010  1208  1211    1
  1011  1213  1214    1
  1012  1213  1218    1
  1013  1214  1215    1
  1014  1214  1216    1
  1015  1214  1217    1
  1016  1219  1220    1
  1017  1219  1224    1
  1018  1220  1221    1
  1019  1220  1222    1
  1020  1220  1223    1
  1021  1225  1226    1
  1022  1225  1230    1
  1023  1226  1227    1
  1024  1226  1228    1
  1025  1226  1229    1
  1026  1231  1232    1
  1027  1231  1236    1
  1028  1232  1233    1
  1029  1232  1234    1
  1030  1232  1235    1
  1031  1237  1238    1
  1032  1237  1242    1
  1033  1238  1239    1
  1034  1238  1240    1
  1035  1238  1241    1
  1036  1243  1244    1
  1037  1243  1248    1
  1038  1244  1245    1
  1039  1244  1246    1
  1040  1244  1247    1
  1041  1249  1250    1
  1042  1249  1254    1
  1043  1250  1251    1
  1044  1250  1252    1
  1045  1250  1253    1
  1046  1255  1256    1
  1047  1255  1260    1
  1048  1256  1257    1
  1049  1256  1258    1
  1050  1256  1259    1
  1051  1261  1262    1
  1052  1261  1266    1
  1053  1262  1263    1
  1054  1262  1264    1
  1055  1262  1265    1
  1056  1267  1268    1
  1057  1267  1272    1
  1058  1268  1269    1
  1059  1268  1270    1
  1060  1268  1271    1
  1061  1273  1274    1
  1062  1273  1278    1
  1063  1274  1275    1
  1064  1274  1276    1
  1065  1274  1277    1
  1066  1279  1280    1
  1067  1279  1284    1
  1068  1280  1281    1
  1069  1280  1282    1
  1070  1280  1283    1
  1071  1285  1286    1
  1072  1285  1290    1
  1073  1286  1287    1
  1074  1286  1288    1
  1075  1286  1289    1
  1076  1291  1292    1
  1077  1291  1296    1
  1078  1292  1293    1
  1079  1292  1294    1
  1080  1292  1295    1
  1081  1297  1298    1
  1082  1297  1302    1
  1083  1298  1299    1
  1084  1298  1300    1
  1085  1298  1301    1
  1086  1303  1304    1
  1087  1303  1308    1
  1088  1304  1305    1
  1089  1304  1306    1
  1090  1304  1307    1
  1091  1309  1310    1
  1092  1309  1314    1
  1093  1310  1311    1
  1094  1310  1312    1
  1095  1310  1313    1
  1096  1315  1316    1
  1097  1315  1320    1
  1098  1316  1317    1
  1099  1316  1318    1
  1100  1316  1319    1
  1101  1321  1322    1
  1102  1321  1326    1
  1103  1322  1323    1
  1104  1322  1324    1
  1105  1322  1325    1
  1106  1327  1328    1
  1107  1327  1332    1
  1108  1328  1329    1
  1109  1328  1330    1
  1110  1328  1331    1
  1111  1333  1334    1
  1112  1333  1338    1
  1113  1334  1335    1
  1114  1334  1336    1
  1115  1334  1337    1
  1116  1339  1340    1
  1117  1339  1344    1
  1118  1340  1341    1
  1119  1340  1342    1
  1120  1340  1343    1
  1121  1345  1346    1
  1122  1345  1350    1
  1123  1346  1347    1
  1124  1346  1348    1
  1125  1346  1349    1
  1126  1351  1352    1
  1127  1351  1356    1
  1128  1352  1353    1
  1129  1352  1354    1
  1130  1352  1355    1
  1131  1357  1358    1
  1132  1357  1362    1
  1133  1358  1359    1
  1134  1358  1360    1
  1135  1358  1361    1
  1136  1363  1364    1
  1137  1363  1368    1
  1138  1364  1365    1
  1139  1364  1366    1
  1140  1364  1367    1
  1141  1369  1370    1
  1142  1369  1374    1
  1143  1370  1371    1
  1144  1370  1372    1
  1145  1370  1373    1
  1146  1375  1376    1
  1147  1375  1380    1
  1148  1376  1377    1
  1149  1376  1378    1
  1150  1376  1379    1
  1151  1381  1382    1
  1152  1381  1386    1
  1153  1382  1383    1
  1154  1382  1384    1
  1155  1382  1385    1
  1156  1387  1388    1
  1157  1387  1392    1
  1158  1388  1389    1
  1159  1388  1390    1
  1160  1388  1391    1
  1161  1393  1394    1
  1162  1393  1398    1
  1163  1394  1395    1
  1164  1394  1396    1
  1165  1394  1397    1
  1166  1399  1400    1
  1167  1399  1404    1
  1168  1400  1401    1
  1169  1400  1402    1
  1170  1400  1403    1
  1171  1405  1406    1
  1172  1405  1410    1
  1173  1406  1407    1
  1174  1406  1408    1
  1175  1406  1409    1
  1176  1411  1412    1
  1177  1411  1416    1
  1178  1412  1413    1
  1179  1412  1414    1
  1180  1412  1415    1
  1181  1417  1418    1
  1182  1417  1422    1
  1183  1418  1419    1
  1184  1418  1420    1
  1185  1418  1421    1
  1186  1423  1424    1
  1187  1423  1428    1
  1188  1424  1425    1
  1189  1424  1426    1
  1190  1424  1427    1
  1191  1429  1430    1
  1192  1429  1434    1
  1193  1430  1431    1
  1194  1430  1432    1
  1195  1430  1433    1
  1196  1435  1436    1
  1197  1435  1440    1
  1198  1436  1437    1
  1199  1436  1438    1
  1200  1436  1439    1
  1201  1441  1442    1
  1202  1441  1446    1
  1203  1442  1443    1
  1204  1442  1444    1
  1205  1442  1445    1
  1206  1447  1448    1
  1207  1447  1452    1
  1208  1448  1449    1
  1209  1448  1450    1
  1210  1448  1451    1
  1211  1453  1454    1
  1212  1453  1458    1
  1213  1454  1455    1
  1214  1454  1456    1
  1215  1454  1457    1
  1216  1459  1460    1
  1217  1459  1464    1
  1218  1460  1461    1
  1219  1460  1462    1
  1220  1460  1463    1
  1221  1465  1466    1
  1222  1465  1470    1
  1223  1466  1467    1
  1224  1466  1468    1
  1225  1466  1469    1
  1226  1471  1472    1
  1227  1471  1476    1
  1228  1472  1473    1
  1229  1472  1474    1
  1230  1472  1475    1
  1231  1477  1478    1
  1232  1477  1482    1
  1233  1478  1479    1
  1234  1478  1480    1
  1235  1478  1481    1
  1236  1483  1484    1
  1237  1483  1488    1
  1238  1484  1485    1
  1239  1484  1486    1
  1240  1484  1487    1
  1241  1489  1490    1
  1242  1489  1494    1
  1243  1490  1491    1
  1244  1490  1492    1
  1245  1490  1493    1
  1246  1495  1496    1
  1247  1495  1500    1
  1248  1496  1497    1
  1249  1496  1498    1
  1250  1496  1499    1
  1251  1501  1502    1
  1252  1501  1506    1
  1253  1502  1503    1
  1254  1502  1504    1
  1255  1502  1505    1
  1256  1507  1508    1
  1257  1507  1512    1
  1258  1508  1509    1
  1259  1508  1510    1
  1260  1508  1511    1
  1261  1513  1514    1
  1262  1513  1518    1
  1263  1514  1515    1
  1264  1514  1516    1
  1265  1514  1517    1
  1266  1519  1520    1
  1267  1519  1524    1
  1268  1520  1521    1
  1269  1520  1522    1
  1270  1520  1523    1
  1271  1525  1526    1
  1272  1525  1530    1
  1273  1526  1527    1
  1274  1526  1528    1
  1275  1526  1529    1
  1276  1531  1532    1
  1277  1531  1536    1
  1278  1532  1533    1
  1279  1532  1534    1
  1280  1532  1535    1
  1281  1537  1538    1
  1282  1537  1542    1
  1283  1538  1539    1
  1284  1538  1540    1
  1285  1538  1541    1
  1286  1543  1544    1
  1287  1543  1548    1
  1288  1544  1545    1
  1289  1544  1546    1
  1290  1544  1547    1
  1291  1549  1550    1
  1292  1549  1554    1
  1293  1550  1551    1
  1294  1550  1552    1
  1295  1550  1553    1
  1296  1555  1556    1
  1297  1555  1560    1
  1298  1556  1557    1
  1299  1556  1558    1
  1300  1556  1559    1
  1301  1561  1562    1
  1302  1561  1566    1
  1303  1562  1563    1
  1304  1562  1564    1
  1305  1562  1565    1
  1306  1567  1568    1
  1307  1567  1572    1
  1308  1568  1569    1
  1309  1568  1570    1
  1310  1568  1571    1
  1311  1573  1574    1
  1312  1573  1578    1
  1313  1574  1575    1
  1314  1574  1576    1
  1315  1574  1577    1
  1316  1579  1580    1
  1317  1579  1584    1
  1318  1580  1581    1
  1319  1580  1582    1
  1320  1580  1583    1
  1321  1585  1586    1
  1322  1585  1590    1
  1323  1586  1587    1
  1324  1586  1588    1
  1325  1586  1589    1
  1326  1591  1592    1
  1327  1591  1596    1
  1328  1592  1593    1
  1329  1592  1594    1
  1330  1592  1595    1
  1331  1597  1598    1
  1332  1597  1602    1
  1333  1598  1599    1
  1334  1598  1600    1
  1335  1598  1601    1
  1336  1603  1604    1
  1337  1603  1608    1
  1338  1604  1605    1
  1339  1604  1606    1
  1340  1604  1607    1
  1341  1609  1610    1
  1342  1609  1614    1
  1343  1610  1611    1
  1344  1610  1612    1
  1345  1610  1613    1
  1346  1615  1616    1
  1347  1615  1620    1
  1348  1616  1617    1
  1349  1616  1618    1
  1350  1616  1619    1
  1351  1621  1622    1
  1352  1621  1626    1
  1353  1622  1623    1
  1354  1622  1624    1
  1355  1622  1625    1
  1356  1627  1628    1
  1357  1627  1632    1
  1358  1628  1629    1
  1359  1628  1630    1
  1360  1628  1631    1
  1361  1633  1634    1
  1362  1633  1638    1
  1363  1634  1635    1
  1364  1634  1636    1
  1365  1634  1637    1
  1366  1639  1640    1
  1367  1639  1644    1
  1368  1640  1641    1
  1369  1640  1642    1
  1370  1640  1643    1
  1371  1645  1646    1
  1372  1645  1650    1
  1373  1646  1647    1
  1374  1646  1648    1
  1375  1646  1649    1
  1376  1651  1652    1
  1377  1651  1656    1
  1378  1652  1653    1
  1379  1652  1654    1
  1380  1652  1655    1
  1381  1657  1658    1
  1382  1657  1662    1
  1383  1658  1659    1
  1384  1658  1660    1
  1385  1658  1661    1
  1386  1663  1664    1
  1387  1663  1668    1
  1388  1664  1665    1
  1389  1664  1666    1
  1390  1664  1667    1
  1391  1669  1670    1
  1392  1669  1674    1
  1393  1670  1671    1
  1394  1670  1672    1
  1395  1670  1673    1
  1396  1675  1676    1
  1397  1675  1680    1
  1398  1676  1677    1
  1399  1676  1678    1
  1400  1676  1679    1
  1401  1681  1682    1
  1402  1681  1686    1
  1403  1682  1683    1
  1404  1682  1684    1
  1405  1682  1685    1
  1406  1687  1688    1
  1407  1687  1692    1
  1408  1688  1689    1
  1409  1688  1690    1
  1410  1688  1691    1
  1411  1693  1694    1
  1412  1693  1698    1
  1413  1694  1695    1
  1414  1694  1696    1
  1415  1694  1697    1
  1416  1699  1700    1
  1417  1699  1704    1
  1418  1700  1701    1
  1419  1700  1702    1
  1420  1700  1703    1
  1421  1705  1706    1
  1422  1705  1710    1
  1423  1706  1707    1
  1424  1706  1708    1
  1425  1706  1709    1
  1426  1711  1712    1
  1427  1711  1716    1
  1428  1712  1713    1
  1429  1712  1714    1
  1430  1712  1715    1
  1431  1717  1718    1
  1432  1717  1722    1
  1433  1718  1719    1
  1434  1718  1720    1
  1435  1718  1721    1
  1436  1723  1724    1
  1437  1723  1728    1
  1438  1724  1725    1
  1439  1724  1726    1
  1440  1724  1727    1
  1441  1729  1730    1
  1442  1729  1734    1
  1443  1730  1731    1
  1444  1730  1732    1
  1445  1730  1733    1
  1446  1735  1736    1
  1447  1735  1740    1
  1448  1736  1737    1
  1449  1736  1738    1
  1450  1736  1739    1
  1451  1741  1742    1
  1452  1741  1746    1
  1453  1742  1743    1
  1454  1742  1744    1
  1455  1742  1745    1
  1456  1747  1748    1
  1457  1747  1752    1
  1458  1748  1749    1
  1459  1748  1750    1
  1460  1748  1751    1
  1461  1753  1754    1
  1462  1753  1758    1
  1463  1754  1755    1
  1464  1754  1756    1
  1465  1754  1757    1
  1466  1759  1760    1
  1467  1759  1764    1
  1468  1760  1761    1
  1469  1760  1762    1
  1470  1760  1763    1
  1471  1765  1766    1
  1472  1765  1770    1
  1473  1766  1767    1
  1474  1766  1768    1
  1475  1766  1769    1
  1476  1771  1772    1
  1477  1771  1776    1
  1478  1772  1773    1
  1479  1772  1774    1
  1480  1772  1775    1
  1481  1777  1778    1
  1482  1777  1782    1
  1483  1778  1779    1
  1484  1778  1780    1
  1485  1778  1781    1
  1486  1783  1784    1
  1487  1783  1788    1
  1488  1784  1785    1
  1489  1784  1786    1
  1490  1784  1787    1
  1491  1789  1790    1
  1492  1789  1794    1
  1493  1790  1791    1
  1494  1790  1792    1
  1495  1790  1793    1
  1496  1795  1796    1
  1497  1795  1800    1
  1498  1796  1797    1
  1499  1796  1798    1
  1500  1796  1799    1
  1501  1801  1802    1
  1502  1801  1806    1
  1503  1802  1803    1
  1504  1802  1804    1
  1505  1802  1805    1
  1506  1807  1808    1
  1507  1807  1812    1
  1508  1808  1809    1
  1509  1808  1810    1
  1510  1808  1811    1
  1511  1813  1814    1
  1512  1813  1818    1
  1513  1814  1815    1
  1514  1814  1816    1
  1515  1814  1817    1
  1516  1819  1820    1
  1517  1819  1824    1
  1518  1820  1821    1
  1519  1820  1822    1
  1520  1820  1823    1
  1521  1825  1826    1
  1522  1825  1830    1
  1523  1826  1827    1
  1524  1826  1828    1
  1525  1826  1829    1
  1526  1831  1832    1
  1527  1831  1836    1
  1528  1832  1833    1
  1529  1832  1834    1
  1530  1832  1835    1
  1531  1837  1838    1
  1532  1837  1842    1
  1533  1838  1839    1
  1534  1838  1840    1
  1535  1838  1841    1
  1536  1843  1844    1
  1537  1843  1848    1
  1538  1844  1845    1
  1539  1844  1846    1
  1540  1844  1847    1
  1541  1849  1850    1
  1542  1849  1854    1
  1543  1850  1851    1
  1544  1850  1852    1
  1545  1850  1853    1
  1546  1855  1856    1
  1547  1855  1860    1
  1548  1856  1857    1
  1549  1856  1858    1
  1550  1856  1859    1
  1551  1861  1862    1
  1552  1861  1866    1
  1553  1862  1863    1
  1554  1862  1864    1
  1555  1862  1865    1
  1556  1867  1868    1
  1557  1867  1872    1
  1558  1868  1869    1
  1559  1868  1870    1
  1560  1868  1871    1
  1561  1873  1874    1
  1562  1873  1878    1
  1563  1874  1875    1
  1564  1874  1876    1
  1565  1874  1877    1
  1566  1879  1880    1
  1567  1879  1884    1
  1568  1880  1881    1
  1569  1880  1882    1
  1570  1880  1883    1
  1571  1885  1886    1
  1572  1885  1890    1
  1573  1886  1887    1
  1574  1886  1888    1
  1575  1886  1889    1
  1576  1891  1892    1
  1577  1891  1896    1
  1578  1892  1893    1
  1579  1892  1894    1
  1580  1892  1895    1
  1581  1897  1898    1
  1582  1897  1902    1
  1583  1898  1899    1
  1584  1898  1900    1
  1585  1898  1901    1
  1586  1903  1904    1
  1587  1903  1908    1
  1588  1904  1905    1
  1589  1904  1906    1
  1590  1904  1907    1
  1591  1909  1910    1
  1592  1909  1914    1
  1593  1910  1911    1
  1594  1910  1912    1
  1595  1910  1913    1
  1596  1915  1916    1
  1597  1915  1920    1
  1598  1916  1917    1
  1599  1916  1918    1
  1600  1916  1919    1
  1601  1921  1922    1
  1602  1921  1926    1
  1603  1922  1923    1
  1604  1922  1924    1
  1605  1922  1925    1
  1606  1927  1928    1
  1607  1927  1932    1
  1608  1928  1929    1
  1609  1928  1930    1
  1610  1928  1931    1
  1611  1933  1934    1
  1612  1933  1938    1
  1613  1934  1935    1
  1614  1934  1936    1
  1615  1934  1937    1
  1616  1939  1940    1
  1617  1939  1944    1
  1618  1940  1941    1
  1619  1940  1942    1
  1620  1940  1943    1
  1621  1945  1946    1
  1622  1945  1950    1
  1623  1946  1947    1
  1624  1946  1948    1
  1625  1946  1949    1
  1626  1951  1952    1
  1627  1951  1956    1
  1628  1952  1953    1
  1629  1952  1954    1
  1630  1952  1955    1
  1631  1957  1958    1
  1632  1957  1962    1
  1633  1958  1959    1
  1634  1958  1960    1
  1635  1958  1961    1
  1636  1963  1964    1
  1637  1963  1968    1
  1638  1964  1965    1
  1639  1964  1966    1
  1640  1964  1967    1
  1641  1969  1970    1
  1642  1969  1974    1
  1643  1970  1971    1
  1644  1970  1972    1
  1645  1970  1973    1
  1646  1975  1976    1
  1647  1975  1980    1
  1648  1976  1977    1
  1649  1976  1978    1
  1650  1976  1979    1
  1651  1981  1982    1
  1652  1981  1986    1
  1653  1982  1983    1
  1654  1982  1984    1
  1655  1982  1985    1
  1656  1987  1988    1
  1657  1987  1992    1
  1658  1988  1989    1
  1659  1988  1990    1
  1660  1988  1991    1
  1661  1993  1994    1
  1662  1993  1998    1
  1663  1994  1995    1
  1664  1994  1996    1
  1665  1994  1997    1
  1666  1999  2000    1
  1667  1999  2004    1
  1668  2000  2001    1
  1669  2000  2002    1
  1670  2000  2003    1
  1671  2005  2006    1
  1672  2005  2010    1
  1673  2006  2007    1
  1674  2006  2008    1
  1675  2006  2009    1
  1676  2011  2012    1
  1677  2011  2016    1
  1678  2012  2013    1
  1679  2012  2014    1
  1680  2012  2015    1
  1681  2017  2018    1
  1682  2017  2022    1
  1683  2018  2019    1
  1684  2018  2020    1
  1685  2018  2021    1
  1686  2023  2024    1
  1687  2023  2028    1
  1688  2024  2025    1
  1689  2024  2026    1
  1690  2024  2027    1
  1691  2029  2030    1
  1692  2029  2034    1
  1693  2030  2031    1
  1694  2030  2032    1
  1695  2030  2033    1
  1696  2035  2036    1
  1697  2035  2040    1
  1698  2036  2037    1
  1699  2036  2038    1
  1700  2036  2039    1
  1701  2041  2042    1
  1702  2041  2046    1
  1703  2042  2043    1
  1704  2042  2044    1
  1705  2042  2045    1
  1706  2047  2048    1
  1707  2047  2052    1
  1708  2048  2049    1
  1709  2048  2050    1
  1710  2048  2051    1
  1711  2053  2054    1
  1712  2053  2058    1
  1713  2054  2055    1
  1714  2054  2056    1
  1715  2054  2057    1
  1716  2059  2060    1
  1717  2059  2064    1
  1718  2060  2061    1
  1719  2060  2062    1
  1720  2060  2063    1
  1721  2065  2066    1
  1722  2065  2070    1
  1723  2066  2067    1
  1724  2066  2068    1
  1725  2066  2069    1
  1726  2071  2072    1
  1727  2071  2076    1
  1728  2072  2073    1
  1729  2072  2074    1
  1730  2072  2075    1
  1731  2077  2078    1
  1732  2077  2082    1
  1733  2078  2079    1
  1734  2078  2080    1
  1735  2078  2081    1
  1736  2083  2084    1
  1737  2083  2088    1
  1738  2084  2085    1
  1739  2084  2086    1
  1740  2084  2087    1
  1741  2089  2090    1
  1742  2089  2094    1
  1743  2090  2091    1
  1744  2090  2092    1
  1745  2090  2093    1
  1746  2095  2096    1
  1747  2095  2100    1
  1748  2096  2097    1
  1749  2096  2098    1
  1750  2096  2099    1
  1751  2101  2102    1
  1752  2101  2106    1
  1753  2102  2103    1
  1754  2102  2104    1
  1755  2102  2105    1
  1756  2107  2108    1
  1757  2107  2112    1
  1758  2108  2109    1
  1759  2108  2110    1
  1760  2108  2111    1
  1761  2113  2114    1
  1762  2113  2118    1
  1763  2114  2115    1
  1764  2114  2116    1
  1765  2114  2117    1
  1766  2119  2120    1
  1767  2119  2124    1
  1768  2120  2121    1
  1769  2120  2122    1
  1770  2120  2123    1
  1771  2125  2126    1
  1772  2125  2130    1
  1773  2126  2127    1
  1774  2126  2128    1
  1775  2126  2129    1
  1776  2131  2132    1
  1777  2131  2136    1
  1778  2132  2133    1
  1779  2132  2134    1
  1780  2132  2135    1
  1781  2137  2138    1
  1782  2137  2142    1
  1783  2138  2139    1
  1784  2138  2140    1
  1785  2138  2141    1
  1786  2143  2144    1
  1787  2143  2148    1
  1788  2144  2145    1
  1789  2144  2146    1
  1790  2144  2147    1
  1791  2149  2150    1
  1792  2149  2154    1
  1793  2150  2151    1
  1794  2150  2152    1
  1795  2150  2153    1
  1796  2155  2156    1
  1797  2155  2160    1
  1798  2156  2157    1
  1799  2156  2158    1
  1800  2156  2159    1
  1801  2161  2162    1
  1802  2161  2166    1
  1803  2162  2163    1
  1804  2162  2164    1
  1805  2162  2165    1
  1806  2167  2168    1
  1807  2167  2172    1
  1808  2168  2169    1
  1809  2168  2170    1
  1810  2168  2171    1
  1811  2173  2174    1
  1812  2173  2178    1
  1813  2174  2175    1
  1814  2174  2176    1
  1815  2174  2177    1
  1816  2179  2180    1
  1817  2179  2184    1
  1818  2180  2181    1
  1819  2180  2182    1
  1820  2180  2183    1
  1821  2185  2186    1
  1822  2185  2190    1
  1823  2186  2187    1
  1824  2186  2188    1
  1825  2186  2189    1
  1826  2191  2192    1
  1827  2191  2196    1
  1828  2192  2193    1
  1829  2192  2194    1
  1830  2192  2195    1
  1831  2197  2198    1
  1832  2197  2202    1
  1833  2198  2199    1
  1834  2198  2200    1
  1835  2198  2201    1
  1836  2203  2204    1
  1837  2203  2208    1
  1838  2204  2205    1
  1839  2204  2206    1
  1840  2204  2207    1
  1841  2209  2210    1
  1842  2209  2214    1
  1843  2210  2211    1
  1844  2210  2212    1
  1845  2210  2213    1
  1846  2215  2216    1
  1847  2215  2220    1
  1848  2216  2217    1
  1849  2216  2218    1
  1850  2216  2219    1
  1851  2221  2222    1
  1852  2221  2226    1
  1853  2222  2223    1
  1854  2222  2224    1
  1855  2222  2225    1
  1856  2227  2228    1
  1857  2227  2232    1
  1858  2228  2229    1
  1859  2228  2230    1
  1860  2228  2231    1
  1861  2233  2234    1
  1862  2233  2238    1
  1863  2234  2235    1
  1864  2234  2236    1
  1865  2234  2237    1
  1866  2239  2240    1
  1867  2239  2244    1
  1868  2240  2241    1
  1869  2240  2242    1
  1870  2240  2243    1
  1871  2245  2246    1
  1872  2245  2250    1
  1873  2246  2247    1
  1874  2246  2248    1
  1875  2246  2249    1
  1876  2251  2252    1
  1877  2251  2256    1
  1878  2252  2253    1
  1879  2252  2254    1
  1880  2252  2255    1
  1881  2257  2258    1
  1882  2257  2262    1
  1883  2258  2259    1
  1884  2258  2260    1
  1885  2258  2261    1
  1886  2263  2264    1
  1887  2263  2268    1
  1888  2264  2265    1
  1889  2264  2266    1
  1890  2264  2267    1
  1891  2269  2270    1
  1892  2269  2274    1
  1893  2270  2271    1
  1894  2270  2272    1
  1895  2270  2273    1
  1896  2275  2276    1
  1897  2275  2280    1
  1898  2276  2277    1
  1899  2276  2278    1
  1900  2276  2279    1
  1901  2281  2282    1
  1902  2281  2286    1
  1903  2282  2283    1
  1904  2282  2284    1
  1905  2282  2285    1
  1906  2287  2288    1
  1907  2287  2292    1
  1908  2288  2289    1
  1909  2288  2290    1
  1910  2288  2291    1
  1911  2293  2294    1
  1912  2293  2298    1
  1913  2294  2295    1
  1914  2294  2296    1
  1915  2294  2297    1
  1916  2299  2300    1
  1917  2299  2304    1
  1918  2300  2301    1
  1919  2300  2302    1
  1920  2300  2303    1
  1921  2305  2306    1
  1922  2305  2310    1
  1923  2306  2307    1
  1924  2306  2308    1
  1925  2306  2309    1
  1926  2311  2312    1
  1927  2311  2316    1
  1928  2312  2313    1
  1929  2312  2314    1
  1930  2312  2315    1
  1931  2317  2318    1
  1932  2317  2322    1
  1933  2318  2319    1
  1934  2318  2320    1
  1935  2318  2321    1
  1936  2323  2324    1
  1937  2323  2328    1
  1938  2324  2325    1
  1939  2324  2326    1
  1940  2324  2327    1
  1941  2329  2330    1
  1942  2329  2334    1
  1943  2330  2331    1
  1944  2330  2332    1
  1945  2330  2333    1
  1946  2335  2336    1
  1947  2335  2340    1
  1948  2336  2337    1
  1949  2336  2338    1
  1950  2336  2339    1
  1951  2341  2342    1
  1952  2341  2346    1
  1953  2342  2343    1
  1954  2342  2344    1
  1955  2342  2345    1
  1956  2347  2348    1
  1957  2347  2352    1
  1958  2348  2349    1
  1959  2348  2350    1
  1960  2348  2351    1
  1961  2353  2354    1
  1962  2353  2358    1
  1963  2354  2355    1
  1964  2354  2356    1
  1965  2354  2357    1
  1966  2359  2360    1
  1967  2359  2364    1
  1968  2360  2361    1
  1969  2360  2362    1
  1970  2360  2363    1
  1971  2365  2366    1
  1972  2365  2370    1
  1973  2366  2367    1
  1974  2366  2368    1
  1975  2366  2369    1
  1976  2371  2372    1
  1977  2371  2376    1
  1978  2372  2373    1
  1979  2372  2374    1
  1980  2372  2375    1
  1981  2377  2378    1
  1982  2377  2382    1
  1983  2378  2379    1
  1984  2378  2380    1
  1985  2378  2381    1
  1986  2383  2384    1
  1987  2383  2388    1
  1988  2384  2385    1
  1989  2384  2386    1
  1990  2384  2387    1
  1991  2389  2390    1
  1992  2389  2394    1
  1993  2390  2391    1
  1994  2390  2392    1
  1995  2390  2393    1
  1996  2395  2396    1
  1997  2395  2400    1
  1998  2396  2397    1
  1999  2396  2398    1
  2000  2396  2399    1
  2001  2401  2402    1
  2002  2401  2406    1
  2003  2402  2403    1
  2004  2402  2404    1
  2005  2402  2405    1
  2006  2407  2408    1
  2007  2407  2412    1
  2008  2408  2409    1
  2009  2408  2410    1
  2010  2408  2411    1
  2011  2413  2414    1
  2012  2413  2418    1
  2013  2414  2415    1
  2014  2414  2416    1
  2015  2414  2417    1
  2016  2419  2420    1
  2017  2419  2424    1
  2018  2420  2421    1
  2019  2420  2422    1
  2020  2420  2423    1
  2021  2425  2426    1
  2022  2425  2430    1
  2023  2426  2427    1
  2024  2426  2428    1
  2025  2426  2429    1
  2026  2431  2432    1
  2027  2431  2436    1
  2028  2432  2433    1
  2029  2432  2434    1
  2030  2432  2435    1
  2031  2437  2438    1
  2032  2437  2442    1
  2033  2438  2439    1
  2034  2438  2440    1
  2035  2438  2441    1
  2036  2443  2444    1
  2037  2443  2448    1
  2038  2444  2445    1
  2039  2444  2446    1
  2040  2444  2447    1
  2041  2449  2450    1
  2042  2449  2454    1
  2043  2450  2451    1
  2044  2450  2452    1
  2045  2450  2453    1
  2046  2455  2456    1
  2047  2455  2460    1
  2048  2456  2457    1
  2049  2456  2458    1
  2050  2456  2459    1
  2051  2461  2462    1
  2052  2461  2466    1
  2053  2462  2463    1
  2054  2462  2464    1
  2055  2462  2465    1
  2056  2467  2468    1
  2057  2467  2472    1
  2058  2468  2469    1
  2059  2468  2470    1
  2060  2468  2471    1
  2061  2473  2474    1
  2062  2473  2478    1
  2063  2474  2475    1
  2064  2474  2476    1
  2065  2474  2477    1
  2066  2479  2480    1
  2067  2479  2484    1
  2068  2480  2481    1
  2069  2480  2482    1
  2070  2480  2483    1
  2071  2485  2486    1
  2072  2485  2490    1
  2073  2486  2487    1
  2074  2486  2488    1
  2075  2486  2489    1
  2076  2491  2492    1
  2077  2491  2496    1
  2078  2492  2493    1
  2079  2492  2494    1
  2080  2492  2495    1
  2081  2497  2498    1
  2082  2497  2502    1
  2083  2498  2499    1
  2084  2498  2500    1
  2085  2498  2501    1
  2086  2503  2504    1
  2087  2503  2508    1
  2088  2504  2505    1
  2089  2504  2506    1
  2090  2504  2507    1
  2091  2509  2510    1
  2092  2509  2514    1
  2093  2510  2511    1
  2094  2510  2512    1
  2095  2510  2513    1
  2096  2515  2516    1
  2097  2515  2520    1
  2098  2516  2517    1
  2099  2516  2518    1
  2100  2516  2519    1
  2101  2521  2522    1
  2102  2521  2526    1
  2103  2522  2523    1
  2104  2522  2524    1
  2105  2522  2525    1
  2106  2527  2528    1
  2107  2527  2532    1
  2108  2528  2529    1
  2109  2528  2530    1
  2110  2528  2531    1
  2111  2533  2534    1
  2112  2533  2538    1
  2113  2534  2535    1
  2114  2534  2536    1
  2115  2534  2537    1
  2116  2539  2540    1
  2117  2539  2544    1
  2118  2540  2541    1
  2119  2540  2542    1
  2120  2540  2543    1
  2121  2545  2546    1
  2122  2545  2550    1
  2123  2546  2547    1
  2124  2546  2548    1
  2125  2546  2549    1
  2126  2551  2552    1
  2127  2551  2556    1
  2128  2552  2553    1
  2129  2552  2554    1
  2130  2552  2555    1
  2131  2557  2558    1
  2132  2557  2562    1
  2133  2558  2559    1
  2134  2558  2560    1
  2135  2558  2561    1
  2136  2563  2564    1
  2137  2563  2568    1
  2138  2564  2565    1
  2139  2564  2566    1
  2140  2564  2567    1
  2141  2569  2570    1
  2142  2569  2574    1
  2143  2570  2571    1
  2144  2570  2572    1
  2145  2570  2573    1
  2146  2575  2576    1
  2147  2575  2580    1
  2148  2576  2577    1
  2149  2576  2578    1
  2150  2576  2579    1
  2151  2581  2582    1
  2152  2581  2586    1
  2153  2582  2583    1
  2154  2582  2584    1
  2155  2582  2585    1
  2156  2587  2588    1
  2157  2587  2592    1
  2158  2588  2589    1
  2159  2588  2590    1
  2160  2588  2591    1
  2161  2593  2594    1
  2162  2593  2598    1
  2163  2594  2595    1
  2164  2594  2596    1
  2165  2594  2597    1
  2166  2599  2600    1
  2167  2599  2604    1
  2168  2600  2601    1
  2169  2600  2602    1
  2170  2600  2603    1
  2171  2605  2606    1
  2172  2605  2610    1
  2173  2606  2607    1
  2174  2606  2608    1
  2175  2606  2609    1
  2176  2611  2612    1
  2177  2611  2616    1
  2178  2612  2613    1
  2179  2612  2614    1
  2180  2612  2615    1
  2181  2617  2618    1
  2182  2617  2622    1
  2183  2618  2619    1
  2184  2618  2620    1
  2185  2618  2621    1
  2186  2623  2624    1
  2187  2623  2628    1
  2188  2624  2625    1
  2189  2624  2626    1
  2190  2624  2627    1
  2191  2629  2630    1
  2192  2629  2634    1
  2193  2630  2631    1
  2194  2630  2632    1
  2195  2630  2633    1
  2196  2635  2636    1
  2197  2635  2640    1
  2198  2636  2637    1
  2199  2636  2638    1
  2200  2636  2639    1
  2201  2641  2642    1
  2202  2641  2646    1
  2203  2642  2643    1
  2204  2642  2644    1
  2205  2642  2645    1
  2206  2647  2648    1
  2207  2647  2652    1
  2208  2648  2649    1
  2209  2648  2650    1
  2210  2648  2651    1
  2211  2653  2654    1
  2212  2653  2658    1
  2213  2654  2655    1
  2214  2654  2656    1
  2215  2654  2657    1
  2216  2659  2660    1
  2217  2659  2664    1
  2218  2660  2661    1
  2219  2660  2662    1
  2220  2660  2663    1
  2221  2665  2666    1
  2222  2665  2670    1
  2223  2666  2667    1
  2224  2666  2668    1
  2225  2666  2669    1
  2226  2671  2672    1
  2227  2671  2676    1
  2228  2672  2673    1
  2229  2672  2674    1
  2230  2672  2675    1
  2231  2677  2678    1
  2232  2677  2682    1
  2233  2678  2679    1
  2234  2678  2680    1
  2235  2678  2681    1
  2236  2683  2684    1
  2237  2683  2688    1
  2238  2684  2685    1
  2239  2684  2686    1
  2240  2684  2687    1
  2241  2689  2690    1
  2242  2689  2694    1
  2243  2690  2691    1
  2244  2690  2692    1
  2245  2690  2693    1
  2246  2695  2696    1
  2247  2695  2700    1
  2248  2696  2697    1
  2249  2696  2698    1
  2250  2696  2699    1
  2251  2701  2702    1
  2252  2701  2706    1
  2253  2702  2703    1
  2254  2702  2704    1
  2255  2702  2705    1
  2256  2707  2708    1
  2257  2707  2712    1
  2258  2708  2709    1
  2259  2708  2710    1
  2260  2708  2711    1
  2261  2713  2714    1
  2262  2713  2718    1
  2263  2714  2715    1
  2264  2714  2716    1
  2265  2714  2717    1
  2266  2719  2720    1
  2267  2719  2724    1
  2268  2720  2721    1
  2269  2720  2722    1
  2270  2720  2723    1
  2271  2725  2726    1
  2272  2725  2730    1
  2273  2726  2727    1
  2274  2726  2728    1
  2275  2726  2729    1
  2276  2731  2732    1
  2277  2731  2736    1
  2278  2732  2733    1
  2279  2732  2734    1
  2280  2732  2735    1
  2281  2737  2738    1
  2282  2737  2742    1
  2283  2738  2739    1
  2284  2738  2740    1
  2285  2738  2741    1
  2286  2743  2744    1
  2287  2743  2748    1
  2288  2744  2745    1
  2289  2744  2746    1
  2290  2744  2747    1
  2291  2749  2750    1
  2292  2749  2754    1
  2293  2750  2751    1
  2294  2750  2752    1
  2295  2750  2753    1
  2296  2755  2756    1
  2297  2755  2760    1
  2298  2756  2757    1
  2299  2756  2758    1
  2300  2756  2759    1
  2301  2761  2762    1
  2302  2761  2766    1
  2303  2762  2763    1
  2304  2762  2764    1
  2305  2762  2765    1
  2306  2767  2768    1
  2307  2767  2772    1
  2308  2768  2769    1
  2309  2768  2770    1
  2310  2768  2771    1
  2311  2773  2774    1
  2312  2773  2778    1
  2313  2774  2775    1
  2314  2774  2776    1
  2315  2774  2777    1
  2316  2779  2780    1
  2317  2779  2784    1
  2318  2780  2781    1
  2319  2780  2782    1
  2320  2780  2783    1
  2321  2785  2786    1
  2322  2785  2790    1
  2323  2786  2787    1
  2324  2786  2788    1
  2325  2786  2789    1
  2326  2791  2792    1
  2327  2791  2796    1
  2328  2792  2793    1
  2329  2792  2794    1
  2330  2792  2795    1
  2331  2797  2798    1
  2332  2797  2802    1
  2333  2798  2799    1
  2334  2798  2800    1
  2335  2798  2801    1
  2336  2803  2804    1
  2337  2803  2808    1
  2338  2804  2805    1
  2339  2804  2806    1
  2340  2804  2807    1
  2341  2809  2810    1
  2342  2809  2814    1
  2343  2810  2811    1
  2344  2810  2812    1
  2345  2810  2813    1
  2346  2815  2816    1
  2347  2815  2820    1
  2348  2816  2817    1
  2349  2816  2818    1
  2350  2816  2819    1
  2351  2821  2822    1
  2352  2821  2826    1
  2353  2822  2823    1
  2354  2822  2824    1
  2355  2822  2825    1
  2356  2827  2828    1
  2357  2827  2832    1
  2358  2828  2829    1
  2359  2828  2830    1
  2360  2828  2831    1
  2361  2833  2834    1
  2362  2833  2838    1
  2363  2834  2835    1
  2364  2834  2836    1
  2365  2834  2837    1
  2366  2839  2840    1
  2367  2839  2844    1
  2368  2840  2841    1
  2369  2840  2842    1
  2370  2840  2843    1
  2371  2845  2846    1
  2372  2845  2850    1
  2373  2846  2847    1
  2374  2846  2848    1
  2375  2846  2849    1
  2376  2851  2852    1
  2377  2851  2856    1
  2378  2852  2853    1
  2379  2852  2854    1
  2380  2852  2855    1
  2381  2857  2858    1
  2382  2857  2862    1
  2383  2858  2859    1
  2384  2858  2860    1
  2385  2858  2861    1
  2386  2863  2864    1
  2387  2863  2868    1
  2388  2864  2865    1
  2389  2864  2866    1
  2390  2864  2867    1
  2391  2869  2870    1
  2392  2869  2874    1
  2393  2870  2871    1
  2394  2870  2872    1
  2395  2870  2873    1
  2396  2875  2876    1
  2397  2875  2880    1
  2398  2876  2877    1
  2399  2876  2878    1
  2400  2876  2879    1
  2401  2881  2882    1
  2402  2881  2886    1
  2403  2882  2883    1
  2404  2882  2884    1
  2405  2882  2885    1
  2406  2887  2888    1
  2407  2887  2892    1
  2408  2888  2889    1
  2409  2888  2890    1
  2410  2888  2891    1
  2411  2893  2894    1
  2412  2893  2898    1
  2413  2894  2895    1
  2414  2894  2896    1
  2415  2894  2897    1
  2416  2899  2900    1
  2417  2899  2904    1
  2418  2900  2901    1
  2419  2900  2902    1
  2420  2900  2903    1
  2421  2905  2906    1
  2422  2905  2910    1
  2423  2906  2907    1
  2424  2906  2908    1
  2425  2906  2909    1
  2426  2911  2912    1
  2427  2911  2916    1
  2428  2912  2913    1
  2429  2912  2914    1
  2430  2912  2915    1
  2431  2917  2918    1
  2432  2917  2922    1
  2433  2918  2919    1
  2434  2918  2920    1
  2435  2918  2921    1
  2436  2923  2924    1
  2437  2923  2928    1
  2438  2924  2925    1
  2439  2924  2926    1
  2440  2924  2927    1
  2441  2929  2930    1
  2442  2929  2934    1
  2443  2930  2931    1
  2444  2930  2932    1
  2445  2930  2933    1
  2446  2935  2936    1
  2447  2935  2940    1
  2448  2936  2937    1
  2449  2936  2938    1
  2450  2936  2939    1
  2451  2941  2942    1
  2452  2941  2946    1
  2453  2942  2943    1
  2454  2942  2944    1
  2455  2942  2945    1
  2456  2947  2948    1
  2457  2947  2952    1
  2458  2948  2949    1
  2459  2948  2950    1
  2460  2948  2951    1
  2461  2953  2954    1
  2462  2953  2958    1
  2463  2954  2955    1
  2464  2954  2956    1
  2465  2954  2957    1
  2466  2959  2960    1
  2467  2959  2964    1
  2468  2960  2961    1
  2469  2960  2962    1
  2470  2960  2963    1
  2471  2965  2966    1
  2472  2965  2970    1
  2473  2966  2967    1
  2474  2966  2968    1
  2475  2966  2969    1
  2476  2971  2972    1
  2477  2971  2976    1
  2478  2972  2973    1
  2479  2972  2974    1
  2480  2972  2975    1
  2481  2977  2978    1
  2482  2977  2982    1
  2483  2978  2979    1
  2484  2978  2980    1
  2485  2978  2981    1
  2486  2983  2984    1
  2487  2983  2988    1
  2488  2984  2985    1
  2489  2984  2986    1
  2490  2984  2987    1
  2491  2989  2990    1
  2492  2989  2994    1
  2493  2990  2991    1
  2494  2990  2992    1
  2495  2990  2993    1
  2496  2995  2996    1
  2497  2995  3000    1
  2498  2996  2997    1
  2499  2996  2998    1
  2500  2996  2999    1
  2501  3001  3002    1
  2502  3001  3006    1
  2503  3002  3003    1
  2504  3002  3004    1
  2505  3002  3005    1
  2506  3007  3008    1
  2507  3007  3012    1
  2508  3008  3009    1
  2509  3008  3010    1
  2510  3008  3011    1
  2511  3013  3014    1
  2512  3013  3018    1
  2513  3014  3015    1
  2514  3014  3016    1
  2515  3014  3017    1
  2516  3019  3020    1
  2517  3019  3024    1
  2518  3020  3021    1
  2519  3020  3022    1
  2520  3020  3023    1
  2521  3025  3026    1
  2522  3025  3030    1
  2523  3026  3027    1
  2524  3026  3028    1
  2525  3026  3029    1
  2526  3031  3032    1
  2527  3031  3036    1
  2528  3032  3033    1
  2529  3032  3034    1
  2530  3032  3035    1
  2531  3037  3038    1
  2532  3037  3042    1
  2533  3038  3039    1
  2534  3038  3040    1
  2535  3038  3041    1
  2536  3043  3044    1
  2537  3043  3048    1
  2538  3044  3045    1
  2539  3044  3046    1
  2540  3044  3047    1
  2541  3049  3050    1
  2542  3049  3054    1
  2543  3050  3051    1
  2544  3050  3052    1
  2545  3050  3053    1
  2546  3055  3056    1
  2547  3055  3060    1
  2548  3056  3057    1
  2549  3056  3058    1
  2550  3056  3059    1
  2551  3061  3062    1
  2552  3061  3066    1
  2553  3062  3063    1
  2554  3062  3064    1
  2555  3062  3065    1
  2556  3067  3068    1
  2557  3067  3072    1
  2558  3068  3069    1
  2559  3068  3070    1
  2560  3068  3071    1
  2561  3073  3074    1
  2562  3073  3078    1
  2563  3074  3075    1
  2564  3074  3076    1
  2565  3074  3077    1
  2566  3079  3080    1
  2567  3079  3084    1
  2568  3080  3081    1
  2569  3080  3082    1
  2570  3080  3083    1
  2571  3085  3086    1
  2572  3085  3090    1
  2573  3086  3087    1
  2574  3086  3088    1
  2575  3086  3089    1
  2576  3091  3092    1
  2577  3091  3096    1
  2578  3092  3093    1
  2579  3092  3094    1
  2580  3092  3095    1
  2581  3097  3098    1
  2582  3097  3102    1
  2583  3098  3099    1
  2584  3098  3100    1
  2585  3098  3101    1
  2586  3103  3104    1
  2587  3103  3108    1
  2588  3104  3105    1
  2589  3104  3106    1
  2590  3104  3107    1
  2591  3109  3110    1
  2592  3109  3114    1
  2593  3110  3111    1
  2594  3110  3112    1
  2595  3110  3113    1
  2596  3115  3116    1
  2597  3115  3120    1
  2598  3116  3117    1
  2599  3116  3118    1
  2600  3116  3119    1
  2601  3121  3122    1
  2602  3121  3126    1
  2603  3122  3123    1
  2604  3122  3124    1
  2605  3122  3125    1
  2606  3127  3128    1
  2607  3127  3132    1
  2608  3128  3129    1
  2609  3128  3130    1
  2610  3128  3131    1
  2611  3133  3134    1
  2612  3133  3138    1
  2613  3134  3135    1
  2614  3134  3136    1
  2615  3134  3137    1
  2616  3139  3140    1
  2617  3139  3144    1
  2618  3140  3141    1
  2619  3140  3142    1
  2620  3140  3143    1
  2621  3145  3146    1
  2622  3145  3150    1
  2623  3146  3147    1
  2624  3146  3148    1
  2625  3146  3149    1
  2626  3151  3152    1
  2627  3151  3156    1
  2628  3152  3153    1
  2629  3152  3154    1
  2630  3152  3155    1
  2631  3157  3158    1
  2632  3157  3162    1
  2633  3158  3159    1
  2634  3158  3160    1
  2635  3158  3161    1
  2636  3163  3164    1
  2637  3163  3168    1
  2638  3164  3165    1
  2639  3164  3166    1
  2640  3164  3167    1
  2641  3169  3170    1
  2642  3169  3174    1
  2643  3170  3171    1
  2644  3170  3172    1
  2645  3170  3173    1
  2646  3175  3176    1
  2647  3175  3180    1
  2648  3176  3177    1
  2649  3176  3178    1
  2650  3176  3179    1
  2651  3181  3182    1
  2652  3181  3186    1
  2653  3182  3183    1
  2654  3182  3184    1
  2655  3182  3185    1
  2656  3187  3188    1
  2657  3187  3192    1
  2658  3188  3189    1
  2659  3188  3190    1
  2660  3188  3191    1
  2661  3193  3194    1
  2662  3193  3198    1
  2663  3194  3195    1
  2664  3194  3196    1
  2665  3194  3197    1
  2666  3199  3200    1
  2667  3199  3204    1
  2668  3200  3201    1
  2669  3200  3202    1
  2670  3200  3203    1
  2671  3205  3206    1
  2672  3205  3210    1
  2673  3206  3207    1
  2674  3206  3208    1
  2675  3206  3209    1
  2676  3211  3212    1
  2677  3211  3216    1
  2678  3212  3213    1
  2679  3212  3214    1
  2680  3212  3215    1
  2681  3217  3218    1
  2682  3217  3222    1
  2683  3218  3219    1
  2684  3218  3220    1
  2685  3218  3221    1
  2686  3223  3224    1
  2687  3223  3228    1
  2688  3224  3225    1
  2689  3224  3226    1
  2690  3224  3227    1
  2691  3229  3230    1
  2692  3229  3234    1
  2693  3230  3231    1
  2694  3230  3232    1
  2695  3230  3233    1
  2696  3235  3236    1
  2697  3235  3240    1
  2698  3236  3237    1
  2699  3236  3238    1
  2700  3236  3239    1
  2701  3241  3242    1
  2702  3241  3246    1
  2703  3242  3243    1
  2704  3242  3244    1
  2705  3242  3245    1
  2706  3247  3248    1
  2707  3247  3252    1
  2708  3248  3249    1
  2709  3248  3250    1
  2710  3248  3251    1
  2711  3253  3254    1
  2712  3253  3258    1
  2713  3254  3255    1
  2714  3254  3256    1
  2715  3254  3257    1
  2716  3259  3260    1
  2717  3259  3264    1
  2718  3260  3261    1
  2719  3260  3262    1
  2720  3260  3263    1
  2721  3265  3266    1
  2722  3265  3270    1
  2723  3266  3267    1
  2724  3266  3268    1
  2725  3266  3269    1
  2726  3271  3272    1
  2727  3271  3276    1
  2728  3272  3273    1
  2729  3272  3274    1
  2730  3272  3275    1
  2731  3277  3278    1
  2732  3277  3282    1
  2733  3278  3279    1
  2734  3278  3280    1
  2735  3278  3281    1
  2736  3283  3284    1
  2737  3283  3288    1
  2738  3284  3285    1
  2739  3284  3286    1
  2740  3284  3287    1
  2741  3289  3290    1
  2742  3289  3294    1
  2743  3290  3291    1
  2744  3290  3292    1
  2745  3290  3293    1
  2746  3295  3296    1
  2747  3295  3300    1
  2748  3296  3297    1
  2749  3296  3298    1
  2750  3296  3299    1
  2751  3301  3302    1
  2752  3301  3306    1
  2753  3302  3303    1
  2754  3302  3304    1
  2755  3302  3305    1
  2756  3307  3308    1
  2757  3307  3312    1
  2758  3308  3309    1
  2759  3308  3310    1
  2760  3308  3311    1
  2761  3313  3314    1
  2762  3313  3318    1
  2763  3314  3315    1
  2764  3314  3316    1
  2765  3314  3317    1
  2766  3319  3320    1
  2767  3319  3324    1
  2768  3320  3321    1
  2769  3320  3322    1
  2770  3320  3323    1
  2771  3325  3326    1
  2772  3325  3330    1
  2773  3326  3327    1
  2774  3326  3328    1
  2775  3326  3329    1
  2776  3331  3332    1
  2777  3331  3336    1
  2778  3332  3333    1
  2779  3332  3334    1
  2780  3332  3335    1
  2781  3337  3338    1
  2782  3337  3342    1
  2783  3338  3339    1
  2784  3338  3340    1
  2785  3338  3341    1
  2786  3343  3344    1
  2787  3343  3348    1
  2788  3344  3345    1
  2789  3344  3346    1
  2790  3344  3347    1
  2791  3349  3350    1
  2792  3349  3354    1
  2793  3350  3351    1
  2794  3350  3352    1
  2795  3350  3353    1
  2796  3355  3356    1
  2797  3355  3360    1
  2798  3356  3357    1
  2799  3356  3358    1
  2800  3356  3359    1
  2801  3361  3362    1
  2802  3361  3366    1
  2803  3362  3363    1
  2804  3362  3364    1
  2805  3362  3365    1
  2806  3367  3368    1
  2807  3367  3372    1
  2808  3368  3369    1
  2809  3368  3370    1
  2810  3368  3371    1
  2811  3373  3374    1
  2812  3373  3378    1
  2813  3374  3375    1
  2814  3374  3376    1
  2815  3374  3377    1
  2816  3379  3380    1
  2817  3379  3384    1
  2818  3380  3381    1
  2819  3380  3382    1
  2820  3380  3383    1
  2821  3385  3386    1
  2822  3385  3390    1
  2823  3386  3387    1
  2824  3386  3388    1
  2825  3386  3389    1
  2826  3391  3392    1
  2827  3391  3396    1
  2828  3392  3393    1
  2829  3392  3394    1
  2830  3392  3395    1
  2831  3397  3398    1
  2832  3397  3402    1
  2833  3398  3399    1
  2834  3398  3400    1
  2835  3398  3401    1
  2836  3403  3404    1
  2837  3403  3408    1
  2838  3404  3405    1
  2839  3404  3406    1
  2840  3404  3407    1
  2841  3409  3410    1
  2842  3409  3414    1
  2843  3410  3411    1
  2844  3410  3412    1
  2845  3410  3413    1
  2846  3415  3416    1
  2847  3415  3420    1
  2848  3416  3417    1
  2849  3416  3418    1
  2850  3416  3419    1
  2851  3421  3422    1
  2852  3421  3426    1
  2853  3422  3423    1
  2854  3422  3424    1
  2855  3422  3425    1
  2856  3427  3428    1
  2857  3427  3432    1
  2858  3428  3429    1
  2859  3428  3430    1
  2860  3428  3431    1
  2861  3433  3434    1
  2862  3433  3438    1
  2863  3434  3435    1
  2864  3434  3436    1
  2865  3434  3437    1
  2866  3439  3440    1
  2867  3439  3444    1
  2868  3440  3441    1
  2869  3440  3442    1
  2870  3440  3443    1
  2871  3445  3446    1
  2872  3445  3450    1
  2873  3446  3447    1
  2874  3446  3448    1
  2875  3446  3449    1
  2876  3451  3452    1
  2877  3451  3456    1
  2878  3452  3453    1
  2879  3452  3454    1
  2880  3452  3455    1
  2881  3457  3458    1
  2882  3457  3462    1
  2883  3458  3459    1
  2884  3458  3460    1
  2885  3458  3461    1
  2886  3463  3464    1
  2887  3463  3468    1
  2888  3464  3465    1
  2889  3464  3466    1
  2890  3464  3467    1
  2891  3469  3470    1
  2892  3469  3474    1
  2893  3470  3471    1
  2894  3470  3472    1
  2895  3470  3473    1
  2896  3475  3476    1
  2897  3475  3480    1
  2898  3476  3477    1
  2899  3476  3478    1
  2900  3476  3479    1
  2901  3481  3482    1
  2902  3481  3486    1
  2903  3482  3483    1
  2904  3482  3484    1
  2905  3482  3485    1
  2906  3487  3488    1
  2907  3487  3492    1
  2908  3488  3489    1
  2909  3488  3490    1
  2910  3488  3491    1
  2911  3493  3494    1
  2912  3493  3498    1
  2913  3494  3495    1
  2914  3494  3496    1
  2915  3494  3497    1
  2916  3499  3500    1
  2917  3499  3504    1
  2918  3500  3501    1
  2919  3500  3502    1
  2920  3500  3503    1
  2921  3505  3506    1
  2922  3505  3510    1
  2923  3506  3507    1
  2924  3506  3508    1
  2925  3506  3509    1
  2926  3511  3512    1
  2927  3511  3516    1
  2928  3512  3513    1
  2929  3512  3514    1
  2930  3512  3515    1
  2931  3517  3518    1
  2932  3517  3522    1
  2933  3518  3519    1
  2934  3518  3520    1
  2935  3518  3521    1
  2936  3523  3524    1
  2937  3523  3528    1
  2938  3524  3525    1
  2939  3524  3526    1
  2940  3524  3527    1
  2941  3529  3530    1
  2942  3529  3534    1
  2943  3530  3531    1
  2944  3530  3532    1
  2945  3530  3533    1
  2946  3535  3536    1
  2947  3535  3540    1
  2948  3536  3537    1
  2949  3536  3538    1
  2950  3536  3539    1
  2951  3541  3542    1
  2952  3541  3546    1
  2953  3542  3543    1
  2954  3542  3544    1
  2955  3542  3545    1
  2956  3547  3548    1
  2957  3547  3552    1
  2958  3548  3549    1
  2959  3548  3550    1
  2960  3548  3551    1
  2961  3553  3554    1
  2962  3553  3558    1
  2963  3554  3555    1
  2964  3554  3556    1
  2965  3554  3557    1
  2966  3559  3560    1
  2967  3559  3564    1
  2968  3560  3561    1
  2969  3560  3562    1
  2970  3560  3563    1
  2971  3565  3566    1
  2972  3565  3570    1
  2973  3566  3567    1
  2974  3566  3568    1
  2975  3566  3569    1
  2976  3571  3572    1
  2977  3571  3576    1
  2978  3572  3573    1
  2979  3572  3574    1
  2980  3572  3575    1
  2981  3577  3578    1
  2982  3577  3582    1
  2983  3578  3579    1
  2984  3578  3580    1
  2985  3578  3581    1
  2986  3583  3584    1
  2987  3583  3588    1
  2988  3584  3585    1
  2989  3584  3586    1
  2990  3584  3587    1
  2991  3589  3590    1
  2992  3589  3594    1
  2993  3590  3591    1
  2994  3590  3592    1
  2995  3590  3593    1
  2996  3595  3596    1
  2997  3595  3600    1
  2998  3596  3597    1
  2999  3596  3598    1
  3000  3596  3599    1
  3001  3601  3602    1
  3002  3601  3606    1
  3003  3602  3603    1
  3004  3602  3604    1
  3005  3602  3605    1
  3006  3607  3608    1
  3007  3607  3612    1
  3008  3608  3609    1
  3009  3608  3610    1
  3010  3608  3611    1
  3011  3613  3614    1
  3012  3613  3618    1
  3013  3614  3615    1
  3014  3614  3616    1
  3015  3614  3617    1
  3016  3619  3620    1
  3017  3619  3624    1
  3018  3620  3621    1
  3019  3620  3622    1
  3020  3620  3623    1
  3021  3625  3626    1
  3022  3625  3630    1
  3023  3626  3627    1
  3024  3626  3628    1
  3025  3626  3629    1
  3026  3631  3632    1
  3027  3631  3636    1
  3028  3632  3633    1
  3029  3632  3634    1
  3030  3632  3635    1
  3031  3637  3638    1
  3032  3637  3642    1
  3033  3638  3639    1
  3034  3638  3640    1
  3035  3638  3641    1
  3036  3643  3644    1
  3037  3643  3648    1
  3038  3644  3645    1
  3039  3644  3646    1
  3040  3644  3647    1
  3041  3649  3650    1
  3042  3649  3654    1
  3043  3650  3651    1
  3044  3650  3652    1
  3045  3650  3653    1
  3046  3655  3656    1
  3047  3655  3660    1
  3048  3656  3657    1
  3049  3656  3658    1
  3050  3656  3659    1
  3051  3661  3662    1
  3052  3661  3666    1
  3053  3662  3663    1
  3054  3662  3664    1
  3055  3662  3665    1
  3056  3667  3668    1
  3057  3667  3672    1
  3058  3668  3669    1
  3059  3668  3670    1
  3060  3668  3671    1
  3061  3673  3674    1
  3062  3673  3678    1
  3063  3674  3675    1
  3064  3674  3676    1
  3065  3674  3677    1
  3066  3679  3680    1
  3067  3679  3684    1
  3068  3680  3681    1
  3069  3680  3682    1
  3070  3680  3683    1
  3071  3685  3686    1
  3072  3685  3690    1
  3073  3686  3687    1
  3074  3686  3688    1
  3075  3686  3689    1
  3076  3691  3692    1
  3077  3691  3696    1
  3078  3692  3693    1
  3079  3692  3694    1
  3080  3692  3695    1
  3081  3697  3698    1
  3082  3697  3702    1
  3083  3698  3699    1
  3084  3698  3700    1
  3085  3698  3701    1
  3086  3703  3704    1
  3087  3703  3708    1
  3088  3704  3705    1
  3089  3704  3706    1
  3090  3704  3707    1
  3091  3709  3710    1
  3092  3709  3714    1
  3093  3710  3711    1
  3094  3710  3712    1
  3095  3710  3713    1
  3096  3715  3716    1
  3097  3715  3720    1
  3098  3716  3717    1
  3099  3716  3718    1
  3100  3716  3719    1
  3101  3721  3722    1
  3102  3721  3726    1
  3103  3722  3723    1
  3104  3722  3724    1
  3105  3722  3725    1
  3106  3727  3728    1
  3107  3727  3732    1
  3108  3728  3729    1
  3109  3728  3730    1
  3110  3728  3731    1
  3111  3733  3734    1
  3112  3733  3738    1
  3113  3734  3735    1
  3114  3734  3736    1
  3115  3734  3737    1
  3116  3739  3740    1
  3117  3739  3744    1
  3118  3740  3741    1
  3119  3740  3742    1
  3120  3740  3743    1
  3121  3745  3746    1
  3122  3745  3750    1
  3123  3746  3747    1
  3124  3746  3748    1
  3125  3746  3749    1
  3126  3751  3752    1
  3127  3751  3756    1
  3128  3752  3753    1
  3129  3752  3754    1
  3130  3752  3755    1
  3131  3757  3758    1
  3132  3757  3762    1
  3133  3758  3759    1
  3134  3758  3760    1
  3135  3758  3761    1
  3136  3763  3764    1
  3137  3763  3768    1
  3138  3764  3765    1
  3139  3764  3766    1
  3140  3764  3767    1
  3141  3769  3770    1
  3142  3769  3774    1
  3143  3770  3771    1
  3144  3770  3772    1
  3145  3770  3773    1
  3146  3775  3776    1
  3147  3775  3780    1
  3148  3776  3777    1
  3149  3776  3778    1
  3150  3776  3779    1
  3151  3781  3782    1
  3152  3781  3786    1
  3153  3782  3783    1
  3154  3782  3784    1
  3155  3782  3785    1
  3156  3787  3788    1
  3157  3787  3792    1
  3158  3788  3789    1
  3159  3788  3790    1
  3160  3788  3791    1
  3161  3793  3794    1
  3162  3793  3798    1
  3163  3794  3795    1
  3164  3794  3796    1
  3165  3794  3797    1
  3166  3799  3800    1
  3167  3799  3804    1
  3168  3800  3801    1
  3169  3800  3802    1
  3170  3800  3803    1
  3171  3805  3806    1
  3172  3805  3810    1
  3173  3806  3807    1
  3174  3806  3808    1
  3175  3806  3809    1
  3176  3811  3812    1
  3177  3811  3816    1
  3178  3812  3813    1
  3179  3812  3814    1
  3180  3812  3815    1
  3181  3817  3818    1
  3182  3817  3822    1
  3183  3818  3819    1
  3184  3818  3820    1
  3185  3818  3821    1
  3186  3823  3824    1
  3187  3823  3828    1
  3188  3824  3825    1
  3189  3824  3826    1
  3190  3824  3827    1
  3191  3829  3830    1
  3192  3829  3834    1
  3193  3830  3831    1
  3194  3830  3832    1
  3195  3830  3833    1
  3196  3835  3836    1
  3197  3835  3840    1
  3198  3836  3837    1
  3199  3836  3838    1
  3200  3836  3839    1
  3201  3841  3842    1
  3202  3841  3846    1
  3203  3842  3843    1
  3204  3842  3844    1
  3205  3842  3845    1
  3206  3847  3848    1
  3207  3847  3852    1
  3208  3848  3849    1
  3209  3848  3850    1
  3210  3848  3851    1
  3211  3853  3854    1
  3212  3853  3858    1
  3213  3854  3855    1
  3214  3854  3856    1
  3215  3854  3857    1
  3216  3859  3860    1
  3217  3859  3864    1
  3218  3860  3861    1
  3219  3860  3862    1
  3220  3860  3863    1
  3221  3865  3866    1
  3222  3865  3870    1
  3223  3866  3867    1
  3224  3866  3868    1
  3225  3866  3869    1
  3226  3871  3872    1
  3227  3871  3876    1
  3228  3872  3873    1
  3229  3872  3874    1
  3230  3872  3875    1
  3231  3877  3878    1
  3232  3877  3882    1
  3233  3878  3879    1
  3234  3878  3880    1
  3235  3878  3881    1
  3236  3883  3884    1
  3237  3883  3888    1
  3238  3884  3885    1
  3239  3884  3886    1
  3240  3884  3887    1
  3241  3889  3890    1
  3242  3889  3894    1
  3243  3890  3891    1
  3244  3890  3892    1
  3245  3890  3893    1
  3246  3895  3896    1
  3247  3895  3900    1
  3248  3896  3897    1
  3249  3896  3898    1
  3250  3896  3899    1
  3251  3901  3902    1
  3252  3901  3906    1
  3253  3902  3903    1
  3254  3902  3904    1
  3255  3902  3905    1
  3256  3907  3908    1
  3257  3907  3912    1
  3258  3908  3909    1
  3259  3908  3910    1
  3260  3908  3911    1
  3261  3913  3914    1
  3262  3913  3918    1
  3263  3914  3915    1
  3264  3914  3916    1
  3265  3914  3917    1
  3266  3919  3920    1
  3267  3919  3924    1
  3268  3920  3921    1
  3269  3920  3922    1
  3270  3920  3923    1
  3271  3925  3926    1
  3272  3925  3930    1
  3273  3926  3927    1
  3274  3926  3928    1
  3275  3926  3929    1
  3276  3931  3932    1
  3277  3931  3936    1
  3278  3932  3933    1
  3279  3932  3934    1
  3280  3932  3935    1
  3281  3937  3938    1
  3282  3937  3942    1
  3283  3938  3939    1
  3284  3938  3940    1
  3285  3938  3941    1
  3286  3943  3944    1
  3287  3943  3948    1
  3288  3944  3945    1
  3289  3944  3946    1
  3290  3944  3947    1
  3291  3949  3950    1
  3292  3949  3954    1
  3293  3950  3951    1
  3294  3950  3952    1
  3295  3950  3953    1
  3296  3955  3956    1
  3297  3955  3960    1
  3298  3956  3957    1
  3299  3956  3958    1
  3300  3956  3959    1
  3301  3961  3962    1
  3302  3961  3966    1
  3303  3962  3963    1
  3304  3962  3964    1
  3305  3962  3965    1
  3306  3967  3968    1
  3307  3967  3972    1
  3308  3968  3969    1
  3309  3968  3970    1
  3310  3968  3971    1
  3311  3973  3974    1
  3312  3973  3978    1
  3313  3974  3975    1
  3314  3974  3976    1
  3315  3974  3977    1
  3316  3979  3980    1
  3317  3979  3984    1
  3318  3980  3981    1
  3319  3980  3982    1
  3320  3980  3983    1
  3321  3985  3986    1
  3322  3985  3990    1
  3323  3986  3987    1
  3324  3986  3988    1
  3325  3986  3989    1
  3326  3991  3992    1
  3327  3991  3996    1
  3328  3992  3993    1
  3329  3992  3994    1
  3330  3992  3995    1
  3331  3997  3998    1
  3332  3997  4002    1
  3333  3998  3999    1
  3334  3998  4000    1
  3335  3998  4001    1
  3336  4003  4004    1
  3337  4003  4008    1
  3338  4004  4005    1
  3339  4004  4006    1
  3340  4004  4007    1
  3341  4009  4010    1
  3342  4009  4014    1
  3343  4010  4011    1
  3344  4010  4012    1
  3345  4010  4013    1
  3346  4015  4016    1
  3347  4015  4020    1
  3348  4016  4017    1
  3349  4016  4018    1
  3350  4016  4019    1
  3351  4021  4022    1
  3352  4021  4026    1
  3353  4022  4023    1
  3354  4022  4024    1
  3355  4022  4025    1
  3356  4027  4028    1
  3357  4027  4032    1
  3358  4028  4029    1
  3359  4028  4030    1
  3360  4028  4031    1
  3361  4033  4034    1
  3362  4033  4038    1
  3363  4034  4035    1
  3364  4034  4036    1
  3365  4034  4037    1
  3366  4039  4040    1
  3367  4039  4044    1
  3368  4040  4041    1
  3369  4040  4042    1
  3370  4040  4043    1
  3371  4045  4046    1
  3372  4045  4050    1
  3373  4046  4047    1
  3374  4046  4048    1
  3375  4046  4049    1
  3376  4051  4052    1
  3377  4051  4056    1
  3378  4052  4053    1
  3379  4052  4054    1
  3380  4052  4055    1
  3381  4057  4058    1
  3382  4057  4062    1
  3383  4058  4059    1
  3384  4058  4060    1
  3385  4058  4061    1
  3386  4063  4064    1
  3387  4063  4068    1
  3388  4064  4065    1
  3389  4064  4066    1
  3390  4064  4067    1
  3391  4069  4070    1
  3392  4069  4074    1
  3393  4070  4071    1
  3394  4070  4072    1
  3395  4070  4073    1
  3396  4075  4076    1
  3397  4075  4080    1
  3398  4076  4077    1
  3399  4076  4078    1
  3400  4076  4079    1
  3401  4081  4082    1
  3402  4081  4086    1
  3403  4082  4083    1
  3404  4082  4084    1
  3405  4082  4085    1
  3406  4087  4088    1
  3407  4087  4092    1
  3408  4088  4089    1
  3409  4088  4090    1
  3410  4088  4091    1
  3411  4093  4094    1
  3412  4093  4098    1
  3413  4094  4095    1
  3414  4094  4096    1
  3415  4094  4097    1
  3416  4099  4100    1
  3417  4099  4104    1
  3418  4100  4101    1
  3419  4100  4102    1
  3420  4100  4103    1
  3421  4105  4106    1
  3422  4105  4110    1
  3423  4106  4107    1
  3424  4106  4108    1
  3425  4106  4109    1
  3426  4111  4112    1
  3427  4111  4116    1
  3428  4112  4113    1
  3429  4112  4114    1
  3430  4112  4115    1
  3431  4117  4118    1
  3432  4117  4122    1
  3433  4118  4119    1
  3434  4118  4120    1
  3435  4118  4121    1
  3436  4123  4124    1
  3437  4123  4128    1
  3438  4124  4125    1
  3439  4124  4126    1
  3440  4124  4127    1
  3441  4129  4130    1
  3442  4129  4134    1
  3443  4130  4131    1
  3444  4130  4132    1
  3445  4130  4133    1
  3446  4135  4136    1
  3447  4135  4140    1
  3448  4136  4137    1
  3449  4136  4138    1
  3450  4136  4139    1
  3451  4141  4142    1
  3452  4141  4146    1
  3453  4142  4143    1
  3454  4142  4144    1
  3455  4142  4145    1
  3456  4147  4148    1
  3457  4147  4152    1
  3458  4148  4149    1
  3459  4148  4150    1
  3460  4148  4151    1
  3461  4153  4154    1
  3462  4153  4158    1
  3463  4154  4155    1
  3464  4154  4156    1
  3465  4154  4157    1
  3466  4159  4160    1
  3467  4159  4164    1
  3468  4160  4161    1
  3469  4160  4162    1
  3470  4160  4163    1
  3471  4165  4166    1
  3472  4165  4170    1
  3473  4166  4167    1
  3474  4166  4168    1
  3475  4166  4169    1
  3476  4171  4172    1
  3477  4171  4176    1
  3478  4172  4173    1
  3479  4172  4174    1
  3480  4172  4175    1
  3481  4177  4178    1
  3482  4177  4182    1
  3483  4178  4179    1
  3484  4178  4180    1
  3485  4178  4181    1
  3486  4183  4184    1
  3487  4183  4188    1
  3488  4184  4185    1
  3489  4184  4186    1
  3490  4184  4187    1
  3491  4189  4190    1
  3492  4189  4194    1
  3493  4190  4191    1
  3494  4190  4192    1
  3495  4190  4193    1
  3496  4195  4196    1
  3497  4195  4200    1
  3498  4196  4197    1
  3499  4196  4198    1
  3500  4196  4199    1
  3501  4201  4202    1
  3502  4201  4206    1
  3503  4202  4203    1
  3504  4202  4204    1
  3505  4202  4205    1
  3506  4207  4208    1
  3507  4207  4212    1
  3508  4208  4209    1
  3509  4208  4210    1
  3510  4208  4211    1
  3511  4213  4214    1
  3512  4213  4218    1
  3513  4214  4215    1
  3514  4214  4216    1
  3515  4214  4217    1
  3516  4219  4220    1
  3517  4219  4224    1
  3518  4220  4221    1
  3519  4220  4222    1
  3520  4220  4223    1
  3521  4225  4226    1
  3522  4225  4230    1
  3523  4226  4227    1
  3524  4226  4228    1
  3525  4226  4229    1
  3526  4231  4232    1
  3527  4231  4236    1
  3528  4232  4233    1
  3529  4232  4234    1
  3530  4232  4235    1
  3531  4237  4238    1
  3532  4237  4242    1
  3533  4238  4239    1
  3534  4238  4240    1
  3535  4238  4241    1
  3536  4243  4244    1
  3537  4243  4248    1
  3538  4244  4245    1
  3539  4244  4246    1
  3540  4244  4247    1
  3541  4249  4250    1
  3542  4249  4254    1
  3543  4250  4251    1
  3544  4250  4252    1
  3545  4250  4253    1
  3546  4255  4256    1
  3547  4255  4260    1
  3548  4256  4257    1
  3549  4256  4258    1
  3550  4256  4259    1
  3551  4261  4262    1
  3552  4261  4266    1
  3553  4262  4263    1
  3554  4262  4264    1
  3555  4262  4265    1
  3556  4267  4268    1
  3557  4267  4272    1
  3558  4268  4269    1
  3559  4268  4270    1
  3560  4268  4271    1
  3561  4273  4274    1
  3562  4273  4278    1
  3563  4274  4275    1
  3564  4274  4276    1
  3565  4274  4277    1
  3566  4279  4280    1
  3567  4279  4284    1
  3568  4280  4281    1
  3569  4280  4282    1
  3570  4280  4283    1
  3571  4285  4286    1
  3572  4285  4290    1
  3573  4286  4287    1
  3574  4286  4288    1
  3575  4286  4289    1
  3576  4291  4292    1
  3577  4291  4296    1
  3578  4292  4293    1
  3579  4292  4294    1
  3580  4292  4295    1
  3581  4297  4298    1
  3582  4297  4302    1
  3583  4298  4299    1
  3584  4298  4300    1
  3585  4298  4301    1
  3586  4303  4304    1
  3587  4303  4308    1
  3588  4304  4305    1
  3589  4304  4306    1
  3590  4304  4307    1
  3591  4309  4310    1
  3592  4309  4314    1
  3593  4310  4311    1
  3594  4310  4312    1
  3595  4310  4313    1
  3596  4315  4316    1
  3597  4315  4320    1
  3598  4316  4317    1
  3599  4316  4318    1
  3600  4316  4319    1
  3601  4321  4322    1
  3602  4321  4326    1
  3603  4322  4323    1
  3604  4322  4324    1
  3605  4322  4325    1
  3606  4327  4328    1
  3607  4327  4332    1
  3608  4328  4329    1
  3609  4328  4330    1
  3610  4328  4331    1
  3611  4333  4334    1
  3612  4333  4338    1
  3613  4334  4335    1
  3614  4334  4336    1
  3615  4334  4337    1
  3616  4339  4340    1
  3617  4339  4344    1
  3618  4340  4341    1
  3619  4340  4342    1
  3620  4340  4343    1
  3621  4345  4346    1
  3622  4345  4350    1
  3623  4346  4347    1
  3624  4346  4348    1
  3625  4346  4349    1
  3626  4351  4352    1
  3627  4351  4356    1
  3628  4352  4353    1
  3629  4352  4354    1
  3630  4352  4355    1
  3631  4357  4358    1
  3632  4357  4362    1
  3633  4358  4359    1
  3634  4358  4360    1
  3635  4358  4361    1
  3636  4363  4364    1
  3637  4363  4368    1
  3638  4364  4365    1
  3639  4364  4366    1
  3640  4364  4367    1
  3641  4369  4370    1
  3642  4369  4374    1
  3643  4370  4371    1
  3644  4370  4372    1
  3645  4370  4373    1
  3646  4375  4376    1
  3647  4375  4380    1
  3648  4376  4377    1
  3649  4376  4378    1
  3650  4376  4379    1
  3651  4381  4382    1
  3652  4381  4386    1
  3653  4382  4383    1
  3654  4382  4384    1
  3655  4382  4385    1
  3656  4387  4388    1
  3657  4387  4392    1
  3658  4388  4389    1
  3659  4388  4390    1
  3660  4388  4391    1
  3661  4393  4394    1
  3662  4393  4398    1
  3663  4394  4395    1
  3664  4394  4396    1
  3665  4394  4397    1
  3666  4399  4400    1
  3667  4399  4404    1
  3668  4400  4401    1
  3669  4400  4402    1
  3670  4400  4403    1
  3671  4405  4406    1
  3672  4405  4410    1
  3673  4406  4407    1
  3674  4406  4408    1
  3675  4406  4409    1
  3676  4411  4412    1
  3677  4411  4416    1
  3678  4412  4413    1
  3679  4412  4414    1
  3680  4412  4415    1
  3681  4417  4418    1
  3682  4417  4422    1
  3683  4418  4419    1
  3684  4418  4420    1
  3685  4418  4421    1
  3686  4423  4424    1
  3687  4423  4428    1
  3688  4424  4425    1
  3689  4424  4426    1
  3690  4424  4427    1
  3691  4429  4430    1
  3692  4429  4434    1
  3693  4430  4431    1
  3694  4430  4432    1
  3695  4430  4433    1
  3696  4435  4436    1
  3697  4435  4440    1
  3698  4436  4437    1
  3699  4436  4438    1
  3700  4436  4439    1
  3701  4441  4442    1
  3702  4441  4446    1
  3703  4442  4443    1
  3704  4442  4444    1
  3705  4442  4445    1
  3706  4447  4448    1
  3707  4447  4452    1
  3708  4448  4449    1
  3709  4448  4450    1
  3710  4448  4451    1
  3711  4453  4454    1
  3712  4453  4458    1
  3713  4454  4455    1
  3714  4454  4456    1
  3715  4454  4457    1
  3716  4459  4460    1
  3717  4459  4464    1
  3718  4460  4461    1
  3719  4460  4462    1
  3720  4460  4463    1
  3721  4465  4466    1
  3722  4465  4470    1
  3723  4466  4467    1
  3724  4466  4468    1
  3725  4466  4469    1
  3726  4471  4472    1
  3727  4471  4476    1
  3728  4472  4473    1
  3729  4472  4474    1
  3730  4472  4475    1
  3731  4477  4478    1
  3732  4477  4482    1
  3733  4478  4479    1
  3734  4478  4480    1
  3735  4478  4481    1
  3736  4483  4484    1
  3737  4483  4488    1
  3738  4484  4485    1
  3739  4484  4486    1
  3740  4484  4487    1
  3741  4489  4490    1
  3742  4489  4494    1
  3743  4490  4491    1
  3744  4490  4492    1
  3745  4490  4493    1
  3746  4495  4496    1
  3747  4495  4500    1
  3748  4496  4497    1
  3749  4496  4498    1
  3750  4496  4499    1
  3751  4501  4502    1
  3752  4501  4506    1
  3753  4502  4503    1
  3754  4502  4504    1
  3755  4502  4505    1
  3756  4507  4508    1
  3757  4507  4512    1
  3758  4508  4509    1
  3759  4508  4510    1
  3760  4508  4511    1
  3761  4513  4514    1
  3762  4513  4518    1
  3763  4514  4515    1
  3764  4514  4516    1
  3765  4514  4517    1
  3766  4519  4520    1
  3767  4519  4524    1
  3768  4520  4521    1
  3769  4520  4522    1
  3770  4520  4523    1
  3771  4525  4526    1
  3772  4525  4530    1
  3773  4526  4527    1
  3774  4526  4528    1
  3775  4526  4529    1
  3776  4531  4532    1
  3777  4531  4536    1
  3778  4532  4533    1
  3779  4532  4534    1
  3780  4532  4535    1
  3781  4537  4538    1
  3782  4537  4542    1
  3783  4538  4539    1
  3784  4538  4540    1
  3785  4538  4541    1
  3786  4543  4544    1
  3787  4543  4548    1
  3788  4544  4545    1
  3789  4544  4546    1
  3790  4544  4547    1
  3791  4549  4550    1
  3792  4549  4554    1
  3793  4550  4551    1
  3794  4550  4552    1
  3795  4550  4553    1
  3796  4555  4556    1
  3797  4555  4560    1
  3798  4556  4557    1
  3799  4556  4558    1
  3800  4556  4559    1
  3801  4561  4562    1
  3802  4561  4566    1
  3803  4562  4563    1
  3804  4562  4564    1
  3805  4562  4565    1
  3806  4567  4568    1
  3807  4567  4572    1
  3808  4568  4569    1
  3809  4568  4570    1
  3810  4568  4571    1
  3811  4573  4574    1
  3812  4573  4578    1
  3813  4574  4575    1
  3814  4574  4576    1
  3815  4574  4577    1
  3816  4579  4580    1
  3817  4579  4584    1
  3818  4580  4581    1
  3819  4580  4582    1
  3820  4580  4583    1
  3821  4585  4586    1
  3822  4585  4590    1
  3823  4586  4587    1
  3824  4586  4588    1
  3825  4586  4589    1
  3826  4591  4592    1
  3827  4591  4596    1
  3828  4592  4593    1
  3829  4592  4594    1
  3830  4592  4595    1
  3831  4597  4598    1
  3832  4597  4602    1
  3833  4598  4599    1
  3834  4598  4600    1
  3835  4598  4601    1
  3836  4603  4604    1
  3837  4603  4608    1
  3838  4604  4605    1
  3839  4604  4606    1
  3840  4604  4607    1
  3841  4609  4610    1
  3842  4609  4614    1
  3843  4610  4611    1
  3844  4610  4612    1
  3845  4610  4613    1
  3846  4615  4616    1
  3847  4615  4620    1
  3848  4616  4617    1
  3849  4616  4618    1
  3850  4616  4619    1
  3851  4621  4622    1
  3852  4621  4626    1
  3853  4622  4623    1
  3854  4622  4624    1
  3855  4622  4625    1
  3856  4627  4628    1
  3857  4627  4632    1
  3858  4628  4629    1
  3859  4628  4630    1
  3860  4628  4631    1
  3861  4633  4634    1
  3862  4633  4638    1
  3863  4634  4635    1
  3864  4634  4636    1
  3865  4634  4637    1
  3866  4639  4640    1
  3867  4639  4644    1
  3868  4640  4641    1
  3869  4640  4642    1
  3870  4640  4643    1
  3871  4645  4646    1
  3872  4645  4650    1
  3873  4646  4647    1
  3874  4646  4648    1
  3875  4646  4649    1
  3876  4651  4652    1
  3877  4651  4656    1
  3878  4652  4653    1
  3879  4652  4654    1
  3880  4652  4655    1
  3881  4657  4658    1
  3882  4657  4662    1
  3883  4658  4659    1
  3884  4658  4660    1
  3885  4658  4661    1
  3886  4663  4664    1
  3887  4663  4668    1
  3888  4664  4665    1
  3889  4664  4666    1
  3890  4664  4667    1
  3891  4669  4670    1
  3892  4669  4674    1
  3893  4670  4671    1
  3894  4670  4672    1
  3895  4670  4673    1
  3896  4675  4676    1
  3897  4675  4680    1
  3898  4676  4677    1
  3899  4676  4678    1
  3900  4676  4679    1
  3901  4681  4682    1
  3902  4681  4686    1
  3903  4682  4683    1
  3904  4682  4684    1
  3905  4682  4685    1
  3906  4687  4688    1
  3907  4687  4692    1
  3908  4688  4689    1
  3909  4688  4690    1
  3910  4688  4691    1
  3911  4693  4694    1
  3912  4693  4698    1
  3913  4694  4695    1
  3914  4694  4696    1
  3915  4694  4697    1
  3916  4699  4700    1
  3917  4699  4704    1
  3918  4700  4701    1
  3919  4700  4702    1
  3920  4700  4703    1
  3921  4705  4706    1
  3922  4705  4710    1
  3923  4706  4707    1
  3924  4706  4708    1
  3925  4706  4709    1
  3926  4711  4712    1
  3927  4711  4716    1
  3928  4712  4713    1
  3929  4712  4714    1
  3930  4712  4715    1
  3931  4717  4718    1
  3932  4717  4722    1
  3933  4718  4719    1
  3934  4718  4720    1
  3935  4718  4721    1
  3936  4723  4724    1
  3937  4723  4728    1
  3938  4724  4725    1
  3939  4724  4726    1
  3940  4724  4727    1
  3941  4729  4730    1
  3942  4729  4734    1
  3943  4730  4731    1
  3944  4730  4732    1
  3945  4730  4733    1
  3946  4735  4736    1
  3947  4735  4740    1
  3948  4736  4737    1
  3949  4736  4738    1
  3950  4736  4739    1
  3951  4741  4742    1
  3952  4741  4746    1
  3953  4742  4743    1
  3954  4742  4744    1
  3955  4742  4745    1
  3956  4747  4748    1
  3957  4747  4752    1
  3958  4748  4749    1
  3959  4748  4750    1
  3960  4748  4751    1
  3961  4753  4754    1
  3962  4753  4758    1
  3963  4754  4755    1
  3964  4754  4756    1
  3965  4754  4757    1
  3966  4759  4760    1
  3967  4759  4764    1
  3968  4760  4761    1
  3969  4760  4762    1
  3970  4760  4763    1
  3971  4765  4766    1
  3972  4765  4770    1
  3973  4766  4767    1
  3974  4766  4768    1
  3975  4766  4769    1
  3976  4771  4772    1
  3977  4771  4776    1
  3978  4772  4773    1
  3979  4772  4774    1
  3980  4772  4775    1
  3981  4777  4778    1
  3982  4777  4782    1
  3983  4778  4779    1
  3984  4778  4780    1
  3985  4778  4781    1
  3986  4783  4784    1
  3987  4783  4788    1
  3988  4784  4785    1
  3989  4784  4786    1
  3990  4784  4787    1
  3991  4789  4790    1
  3992  4789  4794    1
  3993  4790  4791    1
  3994  4790  4792    1
  3995  4790  4793    1
  3996  4795  4796    1
  3997  4795  4800    1
  3998  4796  4797    1
  3999  4796  4798    1
  4000  4796  4799    1
  4001  4801  4802    1
  4002  4801  4806    1
  4003  4802  4803    1
  4004  4802  4804    1
  4005  4802  4805    1
  4006  4807  4808    1
  4007  4807  4812    1
  4008  4808  4809    1
  4009  4808  4810    1
  4010  4808  4811    1
  4011  4813  4814    1
  4012  4813  4818    1
  4013  4814  4815    1
  4014  4814  4816    1
  4015  4814  4817    1
  4016  4819  4820    1
  4017  4819  4824    1
  4018  4820  4821    1
  4019  4820  4822    1
  4020  4820  4823    1
  4021  4825  4826    1
  4022  4825  4830    1
  4023  4826  4827    1
  4024  4826  4828    1
  4025  4826  4829    1
  4026  4831  4832    1
  4027  4831  4836    1
  4028  4832  4833    1
  4029  4832  4834    1
  4030  4832  4835    1
  4031  4837  4838    1
  4032  4837  4842    1
  4033  4838  4839    1
  4034  4838  4840    1
  4035  4838  4841    1
  4036  4843  4844    1
  4037  4843  4848    1
  4038  4844  4845    1
  4039  4844  4846    1
  4040  4844  4847    1
  4041  4849  4850    1
  4042  4849  4854    1
  4043  4850  4851    1
  4044  4850  4852    1
  4045  4850  4853    1
  4046  4855  4856    1
  4047  4855  4860    1
  4048  4856  4857    1
  4049  4856  4858    1
  4050  4856  4859    1
  4051  4861  4862    1
  4052  4861  4866    1
  4053  4862  4863    1
  4054  4862  4864    1
  4055  4862  4865    1
  4056  4867  4868    1
  4057  4867  4872    1
  4058  4868  4869    1
  4059  4868  4870    1
  4060  4868  4871    1
  4061  4873  4874    1
  4062  4873  4878    1
  4063  4874  4875    1
  4064  4874  4876    1
  4065  4874  4877    1
  4066  4879  4880    1
  4067  4879  4884    1
  4068  4880  4881    1
  4069  4880  4882    1
  4070  4880  4883    1
  4071  4885  4886    1
  4072  4885  4890    1
  4073  4886  4887    1
  4074  4886  4888    1
  4075  4886  4889    1
  4076  4891  4892    1
  4077  4891  4896    1
  4078  4892  4893    1
  4079  4892  4894    1
  4080  4892  4895    1
  4081  4897  4898    1
  4082  4897  4902    1
  4083  4898  4899    1
  4084  4898  4900    1
  4085  4898  4901    1
  4086  4903  4904    1
  4087  4903  4908    1
  4088  4904  4905    1
  4089  4904  4906    1
  4090  4904  4907    1
  4091  4909  4910    1
  4092  4909  4914    1
  4093  4910  4911    1
  4094  4910  4912    1
  4095  4910  4913    1
  4096  4915  4916    1
  4097  4915  4920    1
  4098  4916  4917    1
  4099  4916  4918    1
  4100  4916  4919    1
  4101  4921  4922    1
  4102  4921  4926    1
  4103  4922  4923    1
  4104  4922  4924    1
  4105  4922  4925    1
  4106  4927  4928    1
  4107  4927  4932    1
  4108  4928  4929    1
  4109  4928  4930    1
  4110  4928  4931    1
  4111  4933  4934    1
  4112  4933  4938    1
  4113  4934  4935    1
  4114  4934  4936    1
  4115  4934  4937    1
  4116  4939  4940    1
  4117  4939  4944    1
  4118  4940  4941    1
  4119  4940  4942    1
  4120  4940  4943    1
  4121  4945  4946    1
  4122  4945  4950    1
  4123  4946  4947    1
  4124  4946  4948    1
  4125  4946  4949    1
  4126  4951  4952    1
  4127  4951  4956    1
  4128  4952  4953    1
  4129  4952  4954    1
  4130  4952  4955    1
  4131  4957  4958    1
  4132  4957  4962    1
  4133  4958  4959    1
  4134  4958  4960    1
  4135  4958  4961    1
  4136  4963  4964    1
  4137  4963  4968    1
  4138  4964  4965    1
  4139  4964  4966    1
  4140  4964  4967    1
  4141  4969  4970    1
  4142  4969  4974    1
  4143  4970  4971    1
  4144  4970  4972    1
  4145  4970  4973    1
  4146  4975  4976    1
  4147  4975  4980    1
  4148  4976  4977    1
  4149  4976  4978    1
  4150  4976  4979    1
  4151  4981  4982    1
  4152  4981  4986    1
  4153  4982  4983    1
  4154  4982  4984    1
  4155  4982  4985    1
  4156  4987  4988    1
  4157  4987  4992    1
  4158  4988  4989    1
  4159  4988  4990    1
  4160  4988  4991    1
  4161  4993  4994    1
  4162  4993  4998    1
  4163  4994  4995    1
  4164  4994  4996    1
  4165  4994  4997    1
  4166  4999  5000    1
  4167  4999  5004    1
  4168  5000  5001    1
  4169  5000  5002    1
  4170  5000  5003    1
  4171  5005  5006    1
  4172  5005  5010    1
  4173  5006  5007    1
  4174  5006  5008    1
  4175  5006  5009    1
  4176  5011  5012    1
  4177  5011  5016    1
  4178  5012  5013    1
  4179  5012  5014    1
  4180  5012  5015    1
  4181  5017  5018    1
  4182  5017  5022    1
  4183  5018  5019    1
  4184  5018  5020    1
  4185  5018  5021    1
  4186  5023  5024    1
  4187  5023  5028    1
  4188  5024  5025    1
  4189  5024  5026    1
  4190  5024  5027    1
  4191  5029  5030    1
  4192  5029  5034    1
  4193  5030  5031    1
  4194  5030  5032    1
  4195  5030  5033    1
  4196  5035  5036    1
  4197  5035  5040    1
  4198  5036  5037    1
  4199  5036  5038    1
  4200  5036  5039    1
  4201  5041  5042    1
  4202  5041  5046    1
  4203  5042  5043    1
  4204  5042  5044    1
  4205  5042  5045    1
  4206  5047  5048    1
  4207  5047  5052    1
  4208  5048  5049    1
  4209  5048  5050    1
  4210  5048  5051    1
  4211  5053  5054    1
  4212  5053  5058    1
  4213  5054  5055    1
  4214  5054  5056    1
  4215  5054  5057    1
  4216  5059  5060    1
  4217  5059  5064    1
  4218  5060  5061    1
  4219  5060  5062    1
  4220  5060  5063    1
  4221  5065  5066    1
  4222  5065  5070    1
  4223  5066  5067    1
  4224  5066  5068    1
  4225  5066  5069    1
  4226  5071  5072    1
  4227  5071  5076    1
  4228  5072  5073    1
  4229  5072  5074    1
  4230  5072  5075    1
  4231  5077  5078    1
  4232  5077  5082    1
  4233  5078  5079    1
  4234  5078  5080    1
  4235  5078  5081    1
  4236  5083  5084    1
  4237  5083  5088    1
  4238  5084  5085    1
  4239  5084  5086    1
  4240  5084  5087    1
  4241  5089  5090    1
  4242  5089  5094    1
  4243  5090  5091    1
  4244  5090  5092    1
  4245  5090  5093    1
  4246  5095  5096    1
  4247  5095  5100    1
  4248  5096  5097    1
  4249  5096  5098    1
  4250  5096  5099    1
  4251  5101  5102    1
  4252  5101  5106    1
  4253  5102  5103    1
  4254  5102  5104    1
  4255  5102  5105    1
  4256  5107  5108    1
  4257  5107  5112    1
  4258  5108  5109    1
  4259  5108  5110    1
  4260  5108  5111    1
  4261  5113  5114    1
  4262  5113  5118    1
  4263  5114  5115    1
  4264  5114  5116    1
  4265  5114  5117    1
  4266  5119  5120    1
  4267  5119  5124    1
  4268  5120  5121    1
  4269  5120  5122    1
  4270  5120  5123    1
  4271  5125  5126    1
  4272  5125  5130    1
  4273  5126  5127    1
  4274  5126  5128    1
  4275  5126  5129    1
  4276  5131  5132    1
  4277  5131  5136    1
  4278  5132  5133    1
  4279  5132  5134    1
  4280  5132  5135    1
  4281  5137  5138    1
  4282  5137  5142    1
  4283  5138  5139    1
  4284  5138  5140    1
  4285  5138  5141    1
  4286  5143  5144    1
  4287  5143  5148    1
  4288  5144  5145    1
  4289  5144  5146    1
  4290  5144  5147    1
  4291  5149  5150    1
  4292  5149  5154    1
  4293  5150  5151    1
  4294  5150  5152    1
  4295  5150  5153    1
  4296  5155  5156    1
  4297  5155  5160    1
  4298  5156  5157    1
  4299  5156  5158    1
  4300  5156  5159    1
  4301  5161  5162    1
  4302  5161  5166    1
  4303  5162  5163    1
  4304  5162  5164    1
  4305  5162  5165    1
  4306  5167  5168    1
  4307  5167  5172    1
  4308  5168  5169    1
  4309  5168  5170    1
  4310  5168  5171    1
  4311  5173  5174    1
  4312  5173  5178    1
  4313  5174  5175    1
  4314  5174  5176    1
  4315  5174  5177    1
  4316  5179  5180    1
  4317  5179  5184    1
  4318  5180  5181    1
  4319  5180  5182    1
  4320  5180  5183    1
  4321  5185  5186    1
  4322  5185  5190    1
  4323  5186  5187    1
  4324  5186  5188    1
  4325  5186  5189    1
  4326  5191  5192    1
  4327  5191  5196    1
  4328  5192  5193    1
  4329  5192  5194    1
  4330  5192  5195    1
  4331  5197  5198    1
  4332  5197  5202    1
  4333  5198  5199    1
  4334  5198  5200    1
  4335  5198  5201    1
  4336  5203  5204    1
  4337  5203  5208    1
  4338  5204  5205    1
  4339  5204  5206    1
  4340  5204  5207    1
  4341  5209  5210    1
  4342  5209  5214    1
  4343  5210  5211    1
  4344  5210  5212    1
  4345  5210  5213    1
  4346  5215  5216    1
  4347  5215  5220    1
  4348  5216  5217    1
  4349  5216  5218    1
  4350  5216  5219    1
  4351  5221  5222    1
  4352  5221  5226    1
  4353  5222  5223    1
  4354  5222  5224    1
  4355  5222  5225    1
  4356  5227  5228    1
  4357  5227  5232    1
  4358  5228  5229    1
  4359  5228  5230    1
  4360  5228  5231    1
  4361  5233  5234    1
  4362  5233  5238    1
  4363  5234  5235    1
  4364  5234  5236    1
  4365  5234  5237    1
  4366  5239  5240    1
  4367  5239  5244    1
  4368  5240  5241    1
  4369  5240  5242    1
  4370  5240  5243    1
  4371  5245  5246    1
  4372  5245  5250    1
  4373  5246  5247    1
  4374  5246  5248    1
  4375  5246  5249    1
  4376  5251  5252    1
  4377  5251  5256    1
  4378  5252  5253    1
  4379  5252  5254    1
  4380  5252  5255    1
  4381  5257  5258    1
  4382  5257  5262    1
  4383  5258  5259    1
  4384  5258  5260    1
  4385  5258  5261    1
  4386  5263  5264    1
  4387  5263  5268    1
  4388  5264  5265    1
  4389  5264  5266    1
  4390  5264  5267    1
  4391  5269  5270    1
  4392  5269  5274    1
  4393  5270  5271    1
  4394  5270  5272    1
  4395  5270  5273    1
  4396  5275  5276    1
  4397  5275  5280    1
  4398  5276  5277    1
  4399  5276  5278    1
  4400  5276  5279    1
  4401  5281  5282    1
  4402  5281  5286    1
  4403  5282  5283    1
  4404  5282  5284    1
  4405  5282  5285    1
  4406  5287  5288    1
  4407  5287  5292    1
  4408  5288  5289    1
  4409  5288  5290    1
  4410  5288  5291    1
  4411  5293  5294    1
  4412  5293  5298    1
  4413  5294  5295    1
  4414  5294  5296    1
  4415  5294  5297    1
  4416  5299  5300    1
  4417  5299  5304    1
  4418  5300  5301    1
  4419  5300  5302    1
  4420  5300  5303    1
  4421  5305  5306    1
  4422  5305  5310    1
  4423  5306  5307    1
  4424  5306  5308    1
  4425  5306  5309    1
  4426  5311  5312    1
  4427  5311  5316    1
  4428  5312  5313    1
  4429  5312  5314    1
  4430  5312  5315    1
  4431  5317  5318    1
  4432  5317  5322    1
  4433  5318  5319    1
  4434  5318  5320    1
  4435  5318  5321    1
  4436  5323  5324    1
  4437  5323  5328    1
  4438  5324  5325    1
  4439  5324  5326    1
  4440  5324  5327    1
  4441  5329  5330    1
  4442  5329  5334    1
  4443  5330  5331    1
  4444  5330  5332    1
  4445  5330  5333    1
  4446  5335  5336    1
  4447  5335  5340    1
  4448  5336  5337    1
  4449  5336  5338    1
  4450  5336  5339    1
  4451  5341  5342    1
  4452  5341  5346    1
  4453  5342  5343    1
  4454  5342  5344    1
  4455  5342  5345    1
  4456  5347  5348    1
  4457  5347  5352    1
  4458  5348  5349    1
  4459  5348  5350    1
  4460  5348  5351    1
  4461  5353  5354    1
  4462  5353  5358    1
  4463  5354  5355    1
  4464  5354  5356    1
  4465  5354  5357    1
  4466  5359  5360    1
  4467  5359  5364    1
  4468  5360  5361    1
  4469  5360  5362    1
  4470  5360  5363    1
  4471  5365  5366    1
  4472  5365  5370    1
  4473  5366  5367    1
  4474  5366  5368    1
  4475  5366  5369    1
  4476  5371  5372    1
  4477  5371  5376    1
  4478  5372  5373    1
  4479  5372  5374    1
  4480  5372  5375    1
  4481  5377  5378    1
  4482  5377  5382    1
  4483  5378  5379    1
  4484  5378  5380    1
  4485  5378  5381    1
  4486  5383  5384    1
  4487  5383  5388    1
  4488  5384  5385    1
  4489  5384  5386    1
  4490  5384  5387    1
  4491  5389  5390    1
  4492  5389  5394    1
  4493  5390  5391    1
  4494  5390  5392    1
  4495  5390  5393    1
  4496  5395  5396    1
  4497  5395  5400    1
  4498  5396  5397    1
  4499  5396  5398    1
  4500  5396  5399    1
  4501  5401  5402    1
  4502  5401  5406    1
  4503  5402  5403    1
  4504  5402  5404    1
  4505  5402  5405    1
  4506  5407  5408    1
  4507  5407  5412    1
  4508  5408  5409    1
  4509  5408  5410    1
  4510  5408  5411    1
  4511  5413  5414    1
  4512  5413  5418    1
  4513  5414  5415    1
  4514  5414  5416    1
  4515  5414  5417    1
  4516  5419  5420    1
  4517  5419  5424    1
  4518  5420  5421    1
  4519  5420  5422    1
  4520  5420  5423    1
  4521  5425  5426    1
  4522  5425  5430    1
  4523  5426  5427    1
  4524  5426  5428    1
  4525  5426  5429    1
  4526  5431  5432    1
  4527  5431  5436    1
  4528  5432  5433    1
  4529  5432  5434    1
  4530  5432  5435    1
  4531  5437  5438    1
  4532  5437  5442    1
  4533  5438  5439    1
  4534  5438  5440    1
  4535  5438  5441    1
  4536  5443  5444    1
  4537  5443  5448    1
  4538  5444  5445    1
  4539  5444  5446    1
  4540  5444  5447    1
  4541  5449  5450    1
  4542  5449  5454    1
  4543  5450  5451    1
  4544  5450  5452    1
  4545  5450  5453    1
  4546  5455  5456    1
  4547  5455  5460    1
  4548  5456  5457    1
  4549  5456  5458    1
  4550  5456  5459    1
  4551  5461  5462    1
  4552  5461  5466    1
  4553  5462  5463    1
  4554  5462  5464    1
  4555  5462  5465    1
  4556  5467  5468    1
  4557  5467  5472    1
  4558  5468  5469    1
  4559  5468  5470    1
  4560  5468  5471    1
  4561  5473  5474    1
  4562  5473  5478    1
  4563  5474  5475    1
  4564  5474  5476    1
  4565  5474  5477    1
  4566  5479  5480    1
  4567  5479  5484    1
  4568  5480  5481    1
  4569  5480  5482    1
  4570  5480  5483    1
  4571  5485  5486    1
  4572  5485  5490    1
  4573  5486  5487    1
  4574  5486  5488    1
  4575  5486  5489    1
  4576  5491  5492    1
  4577  5491  5496    1
  4578  5492  5493    1
  4579  5492  5494    1
  4580  5492  5495    1
  4581  5497  5498    1
  4582  5497  5502    1
  4583  5498  5499    1
  4584  5498  5500    1
  4585  5498  5501    1
  4586  5503  5504    1
  4587  5503  5508    1
  4588  5504  5505    1
  4589  5504  5506    1
  4590  5504  5507    1
  4591  5509  5510    1
  4592  5509  5514    1
  4593  5510  5511    1
  4594  5510  5512    1
  4595  5510  5513    1
  4596  5515  5516    1
  4597  5515  5520    1
  4598  5516  5517    1
  4599  5516  5518    1
  4600  5516  5519    1
  4601  5521  5522    1
  4602  5521  5526    1
  4603  5522  5523    1
  4604  5522  5524    1
  4605  5522  5525    1
  4606  5527  5528    1
  4607  5527  5532    1
  4608  5528  5529    1
  4609  5528  5530    1
  4610  5528  5531    1
  4611  5533  5534    1
  4612  5533  5538    1
  4613  5534  5535    1
  4614  5534  5536    1
  4615  5534  5537    1
  4616  5539  5540    1
  4617  5539  5544    1
  4618  5540  5541    1
  4619  5540  5542    1
  4620  5540  5543    1
  4621  5545  5546    1
  4622  5545  5550    1
  4623  5546  5547    1
  4624  5546  5548    1
  4625  5546  5549    1
  4626  5551  5552    1
  4627  5551  5556    1
  4628  5552  5553    1
  4629  5552  5554    1
  4630  5552  5555    1
  4631  5557  5558    1
  4632  5557  5562    1
  4633  5558  5559    1
  4634  5558  5560    1
  4635  5558  5561    1
  4636  5563  5564    1
  4637  5563  5568    1
  4638  5564  5565    1
  4639  5564  5566    1
  4640  5564  5567    1
  4641  5569  5570    1
  4642  5569  5574    1
  4643  5570  5571    1
  4644  5570  5572    1
  4645  5570  5573    1
  4646  5575  5576    1
  4647  5575  5580    1
  4648  5576  5577    1
  4649  5576  5578    1
  4650  5576  5579    1
  4651  5581  5582    1
  4652  5581  5586    1
  4653  5582  5583    1
  4654  5582  5584    1
  4655  5582  5585    1
  4656  5587  5588    1
  4657  5587  5592    1
  4658  5588  5589    1
  4659  5588  5590    1
  4660  5588  5591    1
  4661  5593  5594    1
  4662  5593  5598    1
  4663  5594  5595    1
  4664  5594  5596    1
  4665  5594  5597    1
  4666  5599  5600    1
  4667  5599  5604    1
  4668  5600  5601    1
  4669  5600  5602    1
  4670  5600  5603    1
  4671  5605  5606    1
  4672  5605  5610    1
  4673  5606  5607    1
  4674  5606  5608    1
  4675  5606  5609    1
  4676  5611  5612    1
  4677  5611  5616    1
  4678  5612  5613    1
  4679  5612  5614    1
  4680  5612  5615    1
  4681  5617  5618    1
  4682  5617  5622    1
  4683  5618  5619    1
  4684  5618  5620    1
  4685  5618  5621    1
  4686  5623  5624    1
  4687  5623  5628    1
  4688  5624  5625    1
  4689  5624  5626    1
  4690  5624  5627    1
  4691  5629  5630    1
  4692  5629  5634    1
  4693  5630  5631    1
  4694  5630  5632    1
  4695  5630  5633    1
  4696  5635  5636    1
  4697  5635  5640    1
  4698  5636  5637    1
  4699  5636  5638    1
  4700  5636  5639    1
  4701  5641  5642    1
  4702  5641  5646    1
  4703  5642  5643    1
  4704  5642  5644    1
  4705  5642  5645    1
  4706  5647  5648    1
  4707  5647  5652    1
  4708  5648  5649    1
  4709  5648  5650    1
  4710  5648  5651    1
  4711  5653  5654    1
  4712  5653  5658    1
  4713  5654  5655    1
  4714  5654  5656    1
  4715  5654  5657    1
  4716  5659  5660    1
  4717  5659  5664    1
  4718  5660  5661    1
  4719  5660  5662    1
  4720  5660  5663    1
  4721  5665  5666    1
  4722  5665  5670    1
  4723  5666  5667    1
  4724  5666  5668    1
  4725  5666  5669    1
  4726  5671  5672    1
  4727  5671  5676    1
  4728  5672  5673    1
  4729  5672  5674    1
  4730  5672  5675    1
  4731  5677  5678    1
  4732  5677  5682    1
  4733  5678  5679    1
  4734  5678  5680    1
  4735  5678  5681    1
  4736  5683  5684    1
  4737  5683  5688    1
  4738  5684  5685    1
  4739  5684  5686    1
  4740  5684  5687    1
  4741  5689  5690    1
  4742  5689  5694    1
  4743  5690  5691    1
  4744  5690  5692    1
  4745  5690  5693    1
  4746  5695  5696    1
  4747  5695  5700    1
  4748  5696  5697    1
  4749  5696  5698    1
  4750  5696  5699    1
  4751  5701  5702    1
  4752  5701  5706    1
  4753  5702  5703    1
  4754  5702  5704    1
  4755  5702  5705    1
  4756  5707  5708    1
  4757  5707  5712    1
  4758  5708  5709    1
  4759  5708  5710    1
  4760  5708  5711    1
  4761  5713  5714    1
  4762  5713  5718    1
  4763  5714  5715    1
  4764  5714  5716    1
  4765  5714  5717    1
  4766  5719  5720    1
  4767  5719  5724    1
  4768  5720  5721    1
  4769  5720  5722    1
  4770  5720  5723    1
  4771  5725  5726    1
  4772  5725  5730    1
  4773  5726  5727    1
  4774  5726  5728    1
  4775  5726  5729    1
  4776  5731  5732    1
  4777  5731  5736    1
  4778  5732  5733    1
  4779  5732  5734    1
  4780  5732  5735    1
  4781  5737  5738    1
  4782  5737  5742    1
  4783  5738  5739    1
  4784  5738  5740    1
  4785  5738  5741    1
  4786  5743  5744    1
  4787  5743  5748    1
  4788  5744  5745    1
  4789  5744  5746    1
  4790  5744  5747    1
  4791  5749  5750    1
  4792  5749  5754    1
  4793  5750  5751    1
  4794  5750  5752    1
  4795  5750  5753    1
  4796  5755  5756    1
  4797  5755  5760    1
  4798  5756  5757    1
  4799  5756  5758    1
  4800  5756  5759    1
