@<TRIPOS>MOLECULE
*****
 1674 1395 0 0 0
SMALL
GASTEIGER

@<TRIPOS>ATOM
      1 O          -1.3180   -1.0118   -1.1274 O.3     1  UNL1       -0.3982
      2 C          -1.3676   -0.9866    0.2873 C.3     1  UNL1        0.0330
      3 H          -0.5342   -1.5659    0.6924 H       1  UNL1        0.0521
      4 H          -2.3171   -1.4074    0.6270 H       1  UNL1        0.0521
      5 H          -1.2881    0.0487    0.6272 H       1  UNL1        0.0521
      6 H          -1.3908   -1.9425   -1.3993 H       1  UNL1        0.2090
      7 O          -0.9520   -0.1934    2.7386 O.3     2  UNL2       -0.3982
      8 C          -1.6187   -1.3225    3.2726 C.3     2  UNL2        0.0330
      9 H          -0.9035   -1.9471    3.8135 H       2  UNL2        0.0521
     10 H          -2.0769   -1.8936    2.4614 H       2  UNL2        0.0521
     11 H          -2.3965   -0.9833    3.9609 H       2  UNL2        0.0521
     12 H          -0.2683   -0.5257    2.1322 H       2  UNL2        0.2090
     13 O          -1.2586    0.7283    4.9258 O.3     3  UNL3       -0.3982
     14 C          -1.3388    0.3440    6.2861 C.3     3  UNL3        0.0330
     15 H          -0.9925    1.1651    6.9187 H       3  UNL3        0.0521
     16 H          -0.7224   -0.5428    6.4520 H       3  UNL3        0.0521
     17 H          -2.3785    0.1130    6.5293 H       3  UNL3        0.0521
     18 H          -0.3251    0.9269    4.7396 H       3  UNL3        0.2090
     19 O          -1.5004   -1.0396    9.4402 O.3     4  UNL4       -0.3982
     20 C          -0.3910   -1.2943    8.5982 C.3     4  UNL4        0.0330
     21 H           0.4048   -1.7704    9.1765 H       4  UNL4        0.0521
     22 H          -0.0333   -0.3542    8.1712 H       4  UNL4        0.0521
     23 H          -0.7027   -1.9627    7.7923 H       4  UNL4        0.0521
     24 H          -1.1933   -0.4443   10.1451 H       4  UNL4        0.2090
     25 O          -0.4349    0.7009   13.4997 O.3     5  UNL5       -0.3982
     26 C          -1.5511    0.2311   12.7662 C.3     5  UNL5        0.0330
     27 H          -1.8940    1.0120   12.0829 H       5  UNL5        0.0521
     28 H          -2.3530   -0.0419   13.4564 H       5  UNL5        0.0521
     29 H          -1.2534   -0.6486   12.1908 H       5  UNL5        0.0521
     30 H          -0.7295    1.4810   13.9998 H       5  UNL5        0.2090
     31 O          -0.5964   -1.2300   15.1505 O.3     6  UNL6       -0.3982
     32 C          -1.6768   -0.9723   16.0284 C.3     6  UNL6        0.0330
     33 H          -1.2900   -0.6786   17.0074 H       6  UNL6        0.0521
     34 H          -2.2929   -1.8699   16.1226 H       6  UNL6        0.0521
     35 H          -2.2812   -0.1595   15.6190 H       6  UNL6        0.0521
     36 H          -0.0786   -1.9552   15.5399 H       6  UNL6        0.2090
     37 O          -1.7926   -1.4089   19.4110 O.3     7  UNL7       -0.3982
     38 C          -1.4248   -0.0559   19.6072 C.3     7  UNL7        0.0330
     39 H          -2.3171    0.5740   19.5722 H       7  UNL7        0.0521
     40 H          -0.7206    0.2477   18.8287 H       7  UNL7        0.0521
     41 H          -0.9486    0.0446   20.5853 H       7  UNL7        0.0521
     42 H          -2.2121   -1.4669   18.5357 H       7  UNL7        0.2090
     43 O          -1.7757   -1.8536   22.1367 O.3     8  UNL8       -0.3982
     44 C          -1.4079   -1.0789   23.2632 C.3     8  UNL8        0.0330
     45 H          -2.3075   -0.7330   23.7782 H       8  UNL8        0.0521
     46 H          -0.8093   -0.2241   22.9390 H       8  UNL8        0.0521
     47 H          -0.8171   -1.6979   23.9425 H       8  UNL8        0.0521
     48 H          -2.2984   -1.2781   21.5526 H       8  UNL8        0.2090
     49 O          -0.9185   -0.2474   26.0280 O.3     9  UNL9       -0.3982
     50 C          -1.6154   -1.2909   26.6835 C.3     9  UNL9        0.0330
     51 H          -0.9058   -1.9174   27.2297 H       9  UNL9        0.0521
     52 H          -2.1540   -1.8903   25.9455 H       9  UNL9        0.0521
     53 H          -2.3292   -0.8548   27.3863 H       9  UNL9        0.0521
     54 H          -0.2931   -0.6647   25.4114 H       9  UNL9        0.2090
     55 O          -0.5079    1.7377   -1.1055 O.3    10  UNL10      -0.3982
     56 C          -1.9186    1.6176   -1.1068 C.3    10  UNL10       0.0330
     57 H          -2.2723    1.4554   -0.0856 H      10  UNL10       0.0521
     58 H          -2.2132    0.7797   -1.7433 H      10  UNL10       0.0521
     59 H          -2.3533    2.5403   -1.4984 H      10  UNL10       0.0521
     60 H          -0.1506    0.9047   -0.7533 H      10  UNL10       0.2090
     61 O          -0.3942    2.7638    2.2424 O.3    11  UNL11      -0.3982
     62 C          -1.3421    3.8135    2.1787 C.3    11  UNL11       0.0330
     63 H          -2.3516    3.3949    2.1832 H      11  UNL11       0.0521
     64 H          -1.1816    4.3957    1.2680 H      11  UNL11       0.0521
     65 H          -1.2146    4.4608    3.0495 H      11  UNL11       0.0521
     66 H          -0.5317    2.2067    1.4574 H      11  UNL11       0.2090
     67 O          -0.5195    3.0367    5.0983 O.3    12  UNL12      -0.3982
     68 C          -1.9201    3.0076    5.3035 C.3    12  UNL12       0.0330
     69 H          -2.3211    4.0215    5.2305 H      12  UNL12       0.0521
     70 H          -2.1360    2.5889    6.2895 H      12  UNL12       0.0521
     71 H          -2.3787    2.3805    4.5354 H      12  UNL12       0.0521
     72 H          -0.1404    3.6002    5.7942 H      12  UNL12       0.2090
     73 O          -1.4282    3.1385    9.3170 O.3    13  UNL13      -0.3982
     74 C          -1.6803    1.7466    9.2589 C.3    13  UNL13       0.0330
     75 H          -2.3215    1.5270    8.4016 H      13  UNL13       0.0521
     76 H          -2.1664    1.4246   10.1830 H      13  UNL13       0.0521
     77 H          -0.7309    1.2180    9.1459 H      13  UNL13       0.0521
     78 H          -2.2884    3.5807    9.4173 H      13  UNL13       0.2090
     79 O          -0.3160    3.0657   12.5273 O.3    14  UNL14      -0.3982
     80 C          -1.7190    3.2547   12.5128 C.3    14  UNL14       0.0330
     81 H          -2.1197    2.9427   11.5451 H      14  UNL14       0.0521
     82 H          -1.9475    4.3082   12.6913 H      14  UNL14       0.0521
     83 H          -2.1674    2.6480   13.3031 H      14  UNL14       0.0521
     84 H           0.0538    3.6161   11.8160 H      14  UNL14       0.2090
     85 O          -2.3153    2.7694   15.6821 O.3    15  UNL15      -0.3982
     86 C          -1.1523    3.5679   15.5627 C.3    15  UNL15       0.0330
     87 H          -0.2852    2.9264   15.3872 H      15  UNL15       0.0521
     88 H          -1.0111    4.1468   16.4787 H      15  UNL15       0.0521
     89 H          -1.2749    4.2502   14.7183 H      15  UNL15       0.0521
     90 H          -2.1771    2.1747   16.4389 H      15  UNL15       0.2090
     91 O          -0.7863    2.2255   18.4063 O.3    16  UNL16      -0.3982
     92 C          -1.6262    2.9476   19.2881 C.3    16  UNL16       0.0330
     93 H          -2.2970    3.5887   18.7107 H      16  UNL16       0.0521
     94 H          -1.0145    3.5540   19.9605 H      16  UNL16       0.0521
     95 H          -2.2172    2.2405   19.8748 H      16  UNL16       0.0521
     96 H          -0.2748    2.8791   17.8996 H      16  UNL16       0.2090
     97 O          -2.0942    2.2562   22.4157 O.3    17  UNL17      -0.3982
     98 C          -1.5808    2.5354   23.7053 C.3    17  UNL17       0.0330
     99 H          -1.2708    3.5821   23.7563 H      17  UNL17       0.0521
    100 H          -0.7291    1.8817   23.9087 H      17  UNL17       0.0521
    101 H          -2.3626    2.3527   24.4462 H      17  UNL17       0.0521
    102 H          -1.3784    2.4273   21.7801 H      17  UNL17       0.2090
    103 O          -1.4595    3.3829   27.5718 O.3    18  UNL18      -0.3982
    104 C          -1.1828    2.0216   27.2983 C.3    18  UNL18       0.0330
    105 H          -2.0335    1.5730   26.7794 H      18  UNL18       0.0521
    106 H          -0.9933    1.4921   28.2351 H      18  UNL18       0.0521
    107 H          -0.2969    1.9601   26.6619 H      18  UNL18       0.0521
    108 H          -2.2499    3.4057   28.1378 H      18  UNL18       0.2090
    109 O          -1.3146    4.8436   -1.8388 O.3    19  UNL19      -0.3982
    110 C          -1.4230    6.1234   -1.2430 C.3    19  UNL19       0.0330
    111 H          -0.4804    6.3790   -0.7525 H      19  UNL19       0.0521
    112 H          -2.2362    6.1188   -0.5132 H      19  UNL19       0.0521
    113 H          -1.6382    6.8601   -2.0204 H      19  UNL19       0.0521
    114 H          -1.1236    4.2114   -1.1250 H      19  UNL19       0.2090
    115 O          -1.1706    7.7601    3.2536 O.3    20  UNL20      -0.3982
    116 C          -1.5732    7.3706    1.9533 C.3    20  UNL20       0.0330
    117 H          -1.8977    6.3272    1.9686 H      20  UNL20       0.0521
    118 H          -0.7375    7.4934    1.2601 H      20  UNL20       0.0521
    119 H          -2.4044    8.0038    1.6342 H      20  UNL20       0.0521
    120 H          -0.4324    7.1812    3.5095 H      20  UNL20       0.2090
    121 O          -0.4507    6.0426    5.4994 O.3    21  UNL21      -0.3982
    122 C          -1.5362    6.8050    5.9944 C.3    21  UNL21       0.0330
    123 H          -2.3082    6.1341    6.3793 H      21  UNL21       0.0521
    124 H          -1.9437    7.4242    5.1916 H      21  UNL21       0.0521
    125 H          -1.1795    7.4481    6.8024 H      21  UNL21       0.0521
    126 H          -0.7976    5.4824    4.7844 H      21  UNL21       0.2090
    127 O          -0.4015    6.1629    8.7834 O.3    22  UNL22      -0.3982
    128 C          -1.7072    6.4868    9.2248 C.3    22  UNL22       0.0330
    129 H          -2.2704    6.9342    8.4020 H      22  UNL22       0.0521
    130 H          -1.6465    7.1866   10.0618 H      22  UNL22       0.0521
    131 H          -2.2085    5.5730    9.5522 H      22  UNL22       0.0521
    132 H           0.0182    6.9928    8.4994 H      22  UNL22       0.2090
    133 O          -0.7807    6.1185   13.4556 O.3    23  UNL23      -0.3982
    134 C          -1.6232    7.0251   12.7679 C.3    23  UNL23       0.0330
    135 H          -2.3157    6.4690   12.1311 H      23  UNL23       0.0521
    136 H          -1.0151    7.7000   12.1608 H      23  UNL23       0.0521
    137 H          -2.1905    7.6068   13.4983 H      23  UNL23       0.0521
    138 H          -0.2906    5.6169   12.7820 H      23  UNL23       0.2090
    139 O          -0.5371    6.4475   16.1934 O.3    24  UNL24      -0.3982
    140 C          -1.6669    7.1751   15.7476 C.3    24  UNL24       0.0330
    141 H          -2.3820    6.4912   15.2836 H      24  UNL24       0.0521
    142 H          -1.3517    7.9336   15.0270 H      24  UNL24       0.0521
    143 H          -2.1363    7.6630   16.6050 H      24  UNL24       0.0521
    144 H          -0.1419    6.0260   15.4113 H      24  UNL24       0.2090
    145 O          -1.4087    7.1645   18.6169 O.3    25  UNL25      -0.3982
    146 C          -1.3262    5.7930   18.9587 C.3    25  UNL25       0.0330
    147 H          -2.2665    5.4730   19.4146 H      25  UNL25       0.0521
    148 H          -0.4997    5.6397   19.6568 H      25  UNL25       0.0521
    149 H          -1.1469    5.2110   18.0517 H      25  UNL25       0.0521
    150 H          -1.5680    7.6552   19.4411 H      25  UNL25       0.2090
    151 O          -1.4469    6.8124   21.5876 O.3    26  UNL26      -0.3982
    152 C          -1.0261    6.0630   22.7127 C.3    26  UNL26       0.0330
    153 H          -1.8774    5.8907   23.3760 H      26  UNL26       0.0521
    154 H          -0.2421    6.6092   23.2428 H      26  UNL26       0.0521
    155 H          -0.6317    5.1026   22.3725 H      26  UNL26       0.0521
    156 H          -1.7916    7.6585   21.9206 H      26  UNL26       0.2090
    157 O          -0.8047    6.0269   25.4103 O.3    27  UNL27      -0.3982
    158 C          -1.3629    7.3268   25.4666 C.3    27  UNL27       0.0330
    159 H          -1.9913    7.4162   26.3562 H      27  UNL27       0.0521
    160 H          -1.9573    7.5082   24.5678 H      27  UNL27       0.0521
    161 H          -0.5538    8.0589   25.5195 H      27  UNL27       0.0521
    162 H          -1.5460    5.3993   25.3639 H      27  UNL27       0.2090
    163 O          -0.4962    9.1505   -1.1551 O.3    28  UNL28      -0.3982
    164 C          -1.8974    9.1505   -0.9519 C.3    28  UNL28       0.0330
    165 H          -2.1606    8.3815   -0.2214 H      28  UNL28       0.0521
    166 H          -2.4039    8.9558   -1.9003 H      28  UNL28       0.0521
    167 H          -2.2015   10.1291   -0.5732 H      28  UNL28       0.0521
    168 H          -0.2563    8.2701   -1.4910 H      28  UNL28       0.2090
    169 O          -2.4039   10.9340    2.3390 O.3    29  UNL29      -0.3982
    170 C          -1.1189   10.3951    2.0884 C.3    29  UNL29       0.0330
    171 H          -0.7688    9.8586    2.9738 H      29  UNL29       0.0521
    172 H          -0.4260   11.2030    1.8411 H      29  UNL29       0.0521
    173 H          -1.1823    9.7019    1.2464 H      29  UNL29       0.0521
    174 H          -2.3160   11.5447    3.0905 H      29  UNL29       0.2090
    175 O          -0.3440   10.1336    5.7335 O.3    30  UNL30      -0.3982
    176 C          -1.7233    9.9006    5.5151 C.3    30  UNL30       0.0330
    177 H          -2.1424    9.3621    6.3687 H      30  UNL30       0.0521
    178 H          -1.8547    9.3158    4.6015 H      30  UNL30       0.0521
    179 H          -2.2330   10.8609    5.4070 H      30  UNL30       0.0521
    180 H           0.0816    9.2641    5.8256 H      30  UNL30       0.2090
    181 O          -0.8951    9.4150    9.6640 O.3    31  UNL31      -0.3982
    182 C          -1.5802   10.5118    9.0877 C.3    31  UNL31       0.0330
    183 H          -2.3332   10.1443    8.3860 H      31  UNL31       0.0521
    184 H          -0.8666   11.1561    8.5684 H      31  UNL31       0.0521
    185 H          -2.0712   11.0805    9.8808 H      31  UNL31       0.0521
    186 H          -0.4698    8.9296    8.9366 H      31  UNL31       0.2090
    187 O          -2.1503   10.9892   12.8819 O.3    32  UNL32      -0.3982
    188 C          -1.3676    9.8968   12.4365 C.3    32  UNL32       0.0330
    189 H          -0.4729   10.2700   11.9320 H      32  UNL32       0.0521
    190 H          -1.9556    9.2817   11.7510 H      32  UNL32       0.0521
    191 H          -1.0724    9.2958   13.2998 H      32  UNL32       0.0521
    192 H          -2.3971   11.5037   12.0945 H      32  UNL32       0.2090
    193 O          -0.7969    9.6697   16.8650 O.3    33  UNL33      -0.3982
    194 C          -1.6214   10.4682   16.0361 C.3    33  UNL33       0.0330
    195 H          -2.3033    9.8267   15.4725 H      33  UNL33       0.0521
    196 H          -0.9982   11.0471   15.3501 H      33  UNL33       0.0521
    197 H          -2.2006   11.1505   16.6626 H      33  UNL33       0.0521
    198 H          -0.2955    9.0750   16.2815 H      33  UNL33       0.2090
    199 O          -0.5386    9.6864   19.8959 O.3    34  UNL34      -0.3982
    200 C          -1.6666   10.4249   19.4637 C.3    34  UNL34       0.0330
    201 H          -2.3822    9.7520   18.9849 H      34  UNL34       0.0521
    202 H          -1.3492   11.1976   18.7593 H      34  UNL34       0.0521
    203 H          -2.1362   10.8959   20.3305 H      34  UNL34       0.0521
    204 H          -0.1431    9.2804   19.1057 H      34  UNL34       0.2090
    205 O          -0.6947    9.0697   23.7992 O.3    35  UNL35      -0.3982
    206 C          -1.6295    9.8682   23.0971 C.3    35  UNL35       0.0330
    207 H          -2.3853    9.2267   22.6372 H      35  UNL35       0.0521
    208 H          -1.1112   10.4471   22.3288 H      35  UNL35       0.0521
    209 H          -2.1129   10.5505   23.8002 H      35  UNL35       0.0521
    210 H          -0.2822    8.4750   23.1497 H      35  UNL35       0.2090
    211 O          -0.4829    9.3721   27.4944 O.3    36  UNL36      -0.3982
    212 C          -1.8796    9.6040   27.4965 C.3    36  UNL36       0.0330
    213 H          -2.3648    8.9061   28.1834 H      36  UNL36       0.0521
    214 H          -2.2735    9.4706   26.4860 H      36  UNL36       0.0521
    215 H          -2.0692   10.6280   27.8267 H      36  UNL36       0.0521
    216 H          -0.3459    8.4564   27.1973 H      36  UNL36       0.2090
    217 O          -2.2503   13.0068   -0.1381 O.3    37  UNL37      -0.3982
    218 C          -1.6486   12.7360   -1.3907 C.3    37  UNL37       0.0330
    219 H          -2.2151   11.9573   -1.9074 H      37  UNL37       0.0521
    220 H          -0.6169   12.4101   -1.2374 H      37  UNL37       0.0521
    221 H          -1.6547   13.6479   -1.9924 H      37  UNL37       0.0521
    222 H          -2.2304   12.1799    0.3732 H      37  UNL37       0.2090
    223 O          -0.1636   13.7429    4.1237 O.3    38  UNL38      -0.3982
    224 C          -1.2008   14.3263    3.3566 C.3    38  UNL38       0.0330
    225 H          -2.1255   13.7630    3.5041 H      38  UNL38       0.0521
    226 H          -0.9219   14.3193    2.3001 H      38  UNL38       0.0521
    227 H          -1.3486   15.3577    3.6852 H      38  UNL38       0.0521
    228 H          -0.0555   12.8290    3.8096 H      38  UNL38       0.2090
    229 O          -1.4274   14.4889    5.9538 O.3    39  UNL39      -0.3982
    230 C          -1.6801   13.0960    5.9715 C.3    39  UNL39       0.0330
    231 H          -2.2933   12.8250    5.1084 H      39  UNL39       0.0521
    232 H          -2.1969   12.8303    6.8969 H      39  UNL39       0.0521
    233 H          -0.7285   12.5616    5.9219 H      39  UNL39       0.0521
    234 H          -2.2896   14.9363    5.9989 H      39  UNL39       0.2090
    235 O          -0.9285   15.5140    8.1411 O.3    40  UNL40      -0.3982
    236 C          -1.6165   14.5903    8.9645 C.3    40  UNL40       0.0330
    237 H          -2.1316   15.1274    9.7648 H      40  UNL40       0.0521
    238 H          -0.9044   13.8782    9.3886 H      40  UNL40       0.0521
    239 H          -2.3497   14.0522    8.3591 H      40  UNL40       0.0521
    240 H          -0.2853   15.9759    8.7055 H      40  UNL40       0.2090
    241 O          -0.7969   13.0173   13.0682 O.3    41  UNL41      -0.3982
    242 C          -1.6214   13.9264   12.3624 C.3    41  UNL41       0.0330
    243 H          -2.3033   13.3724   11.7126 H      41  UNL41       0.0521
    244 H          -0.9982   14.5978   11.7667 H      41  UNL41       0.0521
    245 H          -2.2006   14.5118   13.0804 H      41  UNL41       0.0521
    246 H          -0.2955   12.5124   12.4054 H      41  UNL41       0.2090
    247 O          -0.4429   13.4499   16.2431 O.3    42  UNL42      -0.3982
    248 C          -1.7168   13.7863   15.7249 C.3    42  UNL42       0.0330
    249 H          -2.2010   12.8880   15.3340 H      42  UNL42       0.0521
    250 H          -1.6036   14.5274   14.9299 H      42  UNL42       0.0521
    251 H          -2.3272   14.2067   16.5275 H      42  UNL42       0.0521
    252 H           0.0757   13.0798   15.5085 H      42  UNL42       0.2090
    253 O          -0.6247   13.5315   19.6180 O.3    43  UNL43      -0.3982
    254 C          -1.6645   14.2815   19.0173 C.3    43  UNL43       0.0330
    255 H          -2.3204   13.6118   18.4555 H      43  UNL43       0.0521
    256 H          -1.2346   15.0323   18.3499 H      43  UNL43       0.0521
    257 H          -2.2407   14.7802   19.8001 H      43  UNL43       0.0521
    258 H          -0.1311   13.1008   18.8993 H      43  UNL43       0.2090
    259 O          -0.8115   13.2361   23.7887 O.3    44  UNL44      -0.3982
    260 C          -1.5904   12.9307   22.6466 C.3    44  UNL44       0.0330
    261 H          -2.3942   12.2448   22.9253 H      44  UNL44       0.0521
    262 H          -0.9558   12.4742   21.8831 H      44  UNL44       0.0521
    263 H          -2.0223   13.8542   22.2537 H      44  UNL44       0.0521
    264 H          -0.4416   12.3980   24.1147 H      44  UNL44       0.2090
    265 O          -1.9061   12.7059   26.6710 O.3    45  UNL45      -0.3982
    266 C          -1.3844   13.7292   27.4987 C.3    45  UNL45       0.0330
    267 H          -0.9126   14.4956   26.8787 H      45  UNL45       0.0521
    268 H          -0.6528   13.3028   28.1894 H      45  UNL45       0.0521
    269 H          -2.2021   14.1770   28.0683 H      45  UNL45       0.0521
    270 H          -1.1579   12.3276   26.1784 H      45  UNL45       0.2090
    271 O          -1.6992   17.6318   -1.4060 O.3    46  UNL46      -0.3982
    272 C          -1.4471   16.3559   -0.8465 C.3    46  UNL46       0.0330
    273 H          -2.3914   15.8969   -0.5434 H      46  UNL46       0.0521
    274 H          -0.7864   16.4602    0.0175 H      46  UNL46       0.0521
    275 H          -0.9638   15.7275   -1.5983 H      46  UNL46       0.0521
    276 H          -2.1280   18.1666   -0.7163 H      46  UNL46       0.2090
    277 O          -1.3645   18.3666   16.2669 O.3    47  UNL47      -0.3982
    278 C          -1.5030   17.0343   16.7255 C.3    47  UNL47       0.0330
    279 H          -0.5360   16.6669   17.0779 H      47  UNL47       0.0521
    280 H          -1.8696   16.4042   15.9115 H      47  UNL47       0.0521
    281 H          -2.2200   17.0149   17.5496 H      47  UNL47       0.0521
    282 H          -0.7228   18.3521   15.5365 H      47  UNL47       0.2090
    283 O           0.9154   -0.9679   -1.8989 O.3    48  UNL48      -0.3982
    284 C           1.7998   -1.0012   -0.7938 C.3    48  UNL48       0.0330
    285 H           2.6625   -1.6273   -1.0350 H      48  UNL48       0.0521
    286 H           1.2785   -1.4012    0.0793 H      48  UNL48       0.0521
    287 H           2.1386    0.0151   -0.5791 H      48  UNL48       0.0521
    288 H           0.6318   -1.8830   -2.0655 H      48  UNL48       0.2090
    289 O           2.3392    0.9049    3.6351 O.3    49  UNL49      -0.3982
    290 C           2.0495   -0.2600    2.8843 C.3    49  UNL49       0.0330
    291 H           1.6004    0.0233    1.9292 H      49  UNL49       0.0521
    292 H           1.3626   -0.8961    3.4478 H      49  UNL49       0.0521
    293 H           2.9788   -0.8043    2.7004 H      49  UNL49       0.0521
    294 H           1.4962    1.3667    3.7826 H      49  UNL49       0.2090
    295 O           3.1448   -1.0929    5.0121 O.3    50  UNL50      -0.3982
    296 C           2.0572   -1.0028    5.9140 C.3    50  UNL50       0.0330
    297 H           2.4345   -0.8310    6.9252 H      50  UNL50       0.0521
    298 H           1.4784   -1.9291    5.8820 H      50  UNL50       0.0521
    299 H           1.4190   -0.1666    5.6187 H      50  UNL50       0.0521
    300 H           3.6928   -1.8430    5.2994 H      50  UNL50       0.2090
    301 O           2.9742   -0.2350    9.9825 O.3    51  UNL51      -0.3982
    302 C           1.7582    0.2552   10.5169 C.3    51  UNL51       0.0330
    303 H           1.1594   -0.5801   10.8884 H      51  UNL51       0.0521
    304 H           1.2092    0.7942    9.7409 H      51  UNL51       0.0521
    305 H           1.9814    0.9359   11.3418 H      51  UNL51       0.0521
    306 H           2.7442   -0.8356    9.2531 H      51  UNL51       0.2090
    307 O           2.8839   -1.6569   12.3569 O.3    52  UNL52      -0.3982
    308 C           1.8310   -1.1373   13.1480 C.3    52  UNL52       0.0330
    309 H           1.5563   -0.1442   12.7839 H      52  UNL52       0.0521
    310 H           2.1523   -1.0787   14.1907 H      52  UNL52       0.0521
    311 H           0.9678   -1.8026   13.0719 H      52  UNL52       0.0521
    312 H           3.6353   -1.0459   12.4444 H      52  UNL52       0.2090
    313 O           1.0376    0.2457   17.0290 O.3    53  UNL53      -0.3982
    314 C           2.2963    0.3277   16.3861 C.3    53  UNL53       0.0330
    315 H           2.9248    1.0558   16.9050 H      53  UNL53       0.0521
    316 H           2.1557    0.6282   15.3449 H      53  UNL53       0.0521
    317 H           2.7763   -0.6531   16.4183 H      53  UNL53       0.0521
    318 H           0.6359    1.1301   16.9846 H      53  UNL53       0.2090
    319 O           2.7863   -1.0484   20.6026 O.3    54  UNL54      -0.3982
    320 C           1.4922   -0.9925   20.0310 C.3    54  UNL54       0.0330
    321 H           0.7405   -1.0687   20.8205 H      54  UNL54       0.0521
    322 H           1.3721   -1.8121   19.3183 H      54  UNL54       0.0521
    323 H           1.3749   -0.0394   19.5099 H      54  UNL54       0.0521
    324 H           2.8608   -1.9045   21.0577 H      54  UNL54       0.2090
    325 O           1.6509   -0.9805   23.6442 O.3    55  UNL55      -0.3982
    326 C           1.8619    0.4030   23.4301 C.3    55  UNL55       0.0330
    327 H           0.9284    0.8689   23.1049 H      55  UNL55       0.0521
    328 H           2.6347    0.5413   22.6700 H      55  UNL55       0.0521
    329 H           2.1887    0.8617   24.3663 H      55  UNL55       0.0521
    330 H           1.3621   -1.3599   22.7967 H      55  UNL55       0.2090
    331 O           2.8359   -0.9732   27.5910 O.3    56  UNL56      -0.3982
    332 C           1.4355   -0.9987   27.3839 C.3    56  UNL56       0.0330
    333 H           0.9446   -1.4313   28.2592 H      56  UNL56       0.0521
    334 H           1.2086   -1.5924   26.4950 H      56  UNL56       0.0521
    335 H           1.0794    0.0237   27.2372 H      56  UNL56       0.0521
    336 H           3.1227   -1.8936   27.7180 H      56  UNL56       0.2090
    337 O           1.4543    3.4780   -0.0084 O.3    57  UNL57      -0.3982
    338 C           1.7151    3.6396   -1.3906 C.3    57  UNL57       0.0330
    339 H           1.6395    2.6717   -1.8922 H      57  UNL57       0.0521
    340 H           2.7162    4.0556   -1.5271 H      57  UNL57       0.0521
    341 H           0.9772    4.3254   -1.8136 H      57  UNL57       0.0521
    342 H           2.1244    2.8650    0.3390 H      57  UNL57       0.2090
    343 O           2.8697    3.8342    4.2201 O.3    58  UNL58      -0.3982
    344 C           3.6770    3.6014    3.0806 C.3    58  UNL58       0.0330
    345 H           3.8266    4.5398    2.5410 H      58  UNL58       0.0521
    346 H           3.1903    2.8691    2.4317 H      58  UNL58       0.0521
    347 H           4.6448    3.2115    3.4045 H      58  UNL58       0.0521
    348 H           2.0183    4.1793    3.9014 H      58  UNL58       0.2090
    349 O           2.7477    2.3281    6.7483 O.3    59  UNL59      -0.3982
    350 C           1.4232    1.9640    7.0910 C.3    59  UNL59       0.0330
    351 H           1.4433    1.2433    7.9123 H      59  UNL59       0.0521
    352 H           0.9278    1.5269    6.2206 H      59  UNL59       0.0521
    353 H           0.8794    2.8575    7.4065 H      59  UNL59       0.0521
    354 H           3.2052    1.5156    6.4727 H      59  UNL59       0.2090
    355 O           3.4538    3.8332   10.3215 O.3    60  UNL60      -0.3982
    356 C           2.5058    3.0344    9.6376 C.3    60  UNL60       0.0330
    357 H           1.7650    2.6582   10.3476 H      60  UNL60       0.0521
    358 H           3.0154    2.1998    9.1500 H      60  UNL60       0.0521
    359 H           2.0059    3.6448    8.8820 H      60  UNL60       0.0521
    360 H           3.8808    3.2649   10.9849 H      60  UNL60       0.2090
    361 O           2.6328    2.9208   12.8082 O.3    61  UNL61      -0.3982
    362 C           2.2077    4.2703   12.8600 C.3    61  UNL61       0.0330
    363 H           1.3741    4.3641   13.5604 H      61  UNL61       0.0521
    364 H           1.8984    4.5943   11.8634 H      61  UNL61       0.0521
    365 H           3.0390    4.8918   13.2011 H      61  UNL61       0.0521
    366 H           1.8747    2.3941   12.5025 H      61  UNL61       0.2090
    367 O           3.3740    3.1311   15.4800 O.3    62  UNL62      -0.3982
    368 C           2.2382    3.6689   16.1322 C.3    62  UNL62       0.0330
    369 H           2.5449    4.4961   16.7771 H      62  UNL62       0.0521
    370 H           1.7551    2.8894   16.7263 H      62  UNL62       0.0521
    371 H           1.5373    4.0371   15.3793 H      62  UNL62       0.0521
    372 H           3.9772    2.8127   16.1729 H      62  UNL62       0.2090
    373 O           1.6805    2.3098   19.8512 O.3    63  UNL63      -0.3982
    374 C           1.8559    3.6635   19.4757 C.3    63  UNL63       0.0330
    375 H           0.9058    4.0700   19.1200 H      63  UNL63       0.0521
    376 H           2.6102    3.7292   18.6878 H      63  UNL63       0.0521
    377 H           2.1905    4.2332   20.3458 H      63  UNL63       0.0521
    378 H           1.3838    1.8297   19.0594 H      63  UNL63       0.2090
    379 O           2.8283    3.2513   23.5033 O.3    64  UNL64      -0.3982
    380 C           1.4411    3.4565   23.6981 C.3    64  UNL64       0.0330
    381 H           0.8987    3.1678   22.7943 H      64  UNL64       0.0521
    382 H           1.2561    4.5089   23.9264 H      64  UNL64       0.0521
    383 H           1.1048    2.8398   24.5349 H      64  UNL64       0.0521
    384 H           3.0977    3.8110   22.7551 H      64  UNL64       0.2090
    385 O           2.8149    3.8055   27.3815 O.3    65  UNL65      -0.3982
    386 C           1.4324    3.5756   27.5825 C.3    65  UNL65       0.0330
    387 H           1.2900    2.6065   28.0672 H      65  UNL65       0.0521
    388 H           0.9155    3.5931   26.6200 H      65  UNL65       0.0521
    389 H           1.0307    4.3637   28.2237 H      65  UNL65       0.0521
    390 H           3.1431    3.0910   26.8094 H      65  UNL65       0.2090
    391 O           3.1315    7.9011   -1.2729 O.3    66  UNL66      -0.3982
    392 C           2.0666    7.0663   -0.8564 C.3    66  UNL66       0.0330
    393 H           2.4705    6.1593   -0.3999 H      66  UNL66       0.0521
    394 H           1.4463    6.8082   -1.7181 H      66  UNL66       0.0521
    395 H           1.4610    7.6027   -0.1220 H      66  UNL66       0.0521
    396 H           3.6507    7.3986   -1.9236 H      66  UNL66       0.2090
    397 O           3.1397    6.9206    1.7690 O.3    67  UNL67      -0.3982
    398 C           1.8170    6.8446    2.2684 C.3    67  UNL67       0.0330
    399 H           1.3724    7.8428    2.2782 H      67  UNL67       0.0521
    400 H           1.8316    6.4305    3.2795 H      67  UNL67       0.0521
    401 H           1.2288    6.1924    1.6185 H      67  UNL67       0.0521
    402 H           3.6372    7.5054    2.3657 H      67  UNL67       0.2090
    403 O           2.0760    5.5925    7.0694 O.3    68  UNL68      -0.3982
    404 C           2.1286    6.8780    6.4784 C.3    68  UNL68       0.0330
    405 H           1.3846    7.5265    6.9477 H      68  UNL68       0.0521
    406 H           1.9316    6.7956    5.4068 H      68  UNL68       0.0521
    407 H           3.1248    7.2993    6.6321 H      68  UNL68       0.0521
    408 H           1.1810    5.2444    6.9169 H      68  UNL68       0.2090
    409 O           2.5876    6.4689    9.5240 O.3    69  UNL69      -0.3982
    410 C           2.7015    7.8669    9.3317 C.3    69  UNL69       0.0330
    411 H           3.0412    8.3366   10.2581 H      69  UNL69       0.0521
    412 H           1.7315    8.2753    9.0380 H      69  UNL69       0.0521
    413 H           3.4298    8.0585    8.5402 H      69  UNL69       0.0521
    414 H           1.9351    6.3300   10.2315 H      69  UNL69       0.2090
    415 O           2.8212    7.5626   12.4040 O.3    70  UNL70      -0.3982
    416 C           1.4201    7.4764   12.5880 C.3    70  UNL70       0.0330
    417 H           1.1998    7.3173   13.6465 H      70  UNL70       0.0521
    418 H           1.0239    6.6493   11.9940 H      70  UNL70       0.0521
    419 H           0.9604    8.4113   12.2589 H      70  UNL70       0.0521
    420 H           3.2012    6.7194   12.7044 H      70  UNL70       0.2090
    421 O           3.3028    7.4428   15.0562 O.3    71  UNL71      -0.3982
    422 C           2.4920    6.7028   15.9503 C.3    71  UNL71       0.0330
    423 H           3.1042    6.3301   16.7754 H      71  UNL71       0.0521
    424 H           2.0306    5.8671   15.4185 H      71  UNL71       0.0521
    425 H           1.7108    7.3563   16.3454 H      71  UNL71       0.0521
    426 H           3.9863    6.8371   14.7222 H      71  UNL71       0.2090
    427 O           3.2549    6.8346   19.0755 O.3    72  UNL72      -0.3982
    428 C           1.8498    6.9103   18.9194 C.3    72  UNL72       0.0330
    429 H           1.3707    6.8731   19.9009 H      72  UNL72       0.0521
    430 H           1.5055    6.0770   18.3022 H      72  UNL72       0.0521
    431 H           1.5972    7.8531   18.4286 H      72  UNL72       0.0521
    432 H           3.4486    5.9882   19.5133 H      72  UNL72       0.2090
    433 O           2.5441    6.1122   22.0822 O.3    73  UNL73      -0.3982
    434 C           2.5035    7.5028   22.3453 C.3    73  UNL73       0.0330
    435 H           2.3398    7.6679   23.4131 H      73  UNL73       0.0521
    436 H           1.6970    7.9604   21.7672 H      73  UNL73       0.0521
    437 H           3.4571    7.9479   22.0519 H      73  UNL73       0.0521
    438 H           1.6852    5.7451   22.3524 H      73  UNL73       0.2090
    439 O           2.0215    6.2991   27.1868 O.3    74  UNL74      -0.3982
    440 C           1.8837    7.7015   27.3239 C.3    74  UNL74       0.0330
    441 H           1.1130    7.9219   28.0667 H      74  UNL74       0.0521
    442 H           1.6110    8.1376   26.3598 H      74  UNL74       0.0521
    443 H           2.8364    8.1214   27.6549 H      74  UNL74       0.0521
    444 H           1.1611    5.9549   26.8922 H      74  UNL74       0.2090
    445 O           2.2143   10.3679   -0.5352 O.3    75  UNL75      -0.3982
    446 C           1.2288   10.5412    0.4664 C.3    75  UNL75       0.0330
    447 H           0.9972    9.5752    0.9220 H      75  UNL75       0.0521
    448 H           0.3282   10.9718    0.0220 H      75  UNL75       0.0521
    449 H           1.6149   11.2190    1.2313 H      75  UNL75       0.0521
    450 H           1.8433    9.7622   -1.1993 H      75  UNL75       0.2090
    451 O           1.5207    9.6854    4.1309 O.3    76  UNL76      -0.3982
    452 C           2.5790   10.0353    3.2579 C.3    76  UNL76       0.0330
    453 H           2.4708    9.4914    2.3163 H      76  UNL76       0.0521
    454 H           3.5351    9.7884    3.7258 H      76  UNL76       0.0521
    455 H           2.5380   11.1094    3.0626 H      76  UNL76       0.0521
    456 H           1.5830    8.7274    4.2858 H      76  UNL76       0.2090
    457 O           4.1209   10.7433    5.6626 O.3    77  UNL77      -0.3982
    458 C           3.1277   10.1440    6.4744 C.3    77  UNL77       0.0330
    459 H           2.2539   10.7983    6.5255 H      77  UNL77       0.0521
    460 H           3.5285    9.9747    7.4767 H      77  UNL77       0.0521
    461 H           2.8383    9.1871    6.0336 H      77  UNL77       0.0521
    462 H           4.3574   11.5898    6.0786 H      77  UNL77       0.2090
    463 O           2.6339   11.0732    9.5101 O.3    78  UNL78      -0.3982
    464 C           1.2754   11.1559    9.1201 C.3    78  UNL78       0.0330
    465 H           0.6424   11.2072   10.0095 H      78  UNL78       0.0521
    466 H           1.0127   10.2793    8.5230 H      78  UNL78       0.0521
    467 H           1.1320   12.0583    8.5211 H      78  UNL78       0.0521
    468 H           2.7303   10.2634   10.0397 H      78  UNL78       0.2090
    469 O           1.9126   11.7419   12.0473 O.3    79  UNL79      -0.3982
    470 C           2.0231   10.4387   12.5896 C.3    79  UNL79       0.0330
    471 H           1.0861   10.1676   13.0826 H      79  UNL79       0.0521
    472 H           2.8463   10.4105   13.3075 H      79  UNL79       0.0521
    473 H           2.2239    9.7329   11.7803 H      79  UNL79       0.0521
    474 H           1.7346   12.3456   12.7884 H      79  UNL79       0.2090
    475 O           2.6445    9.8017   15.9466 O.3    80  UNL80      -0.3982
    476 C           1.6322   10.7017   15.5347 C.3    80  UNL80       0.0330
    477 H           1.1810   11.1707   16.4126 H      80  UNL80       0.0521
    478 H           0.8718   10.1607   14.9662 H      80  UNL80       0.0521
    479 H           2.0780   11.4723   14.9013 H      80  UNL80       0.0521
    480 H           2.2192    9.1301   16.5065 H      80  UNL80       0.2090
    481 O           3.1114    9.6942   19.5821 O.3    81  UNL81      -0.3982
    482 C           2.2995   10.7108   19.0235 C.3    81  UNL81       0.0330
    483 H           1.8178   11.2756   19.8255 H      81  UNL81       0.0521
    484 H           1.5436   10.2598   18.3760 H      81  UNL81       0.0521
    485 H           2.9273   11.3828   18.4337 H      81  UNL81       0.0521
    486 H           2.5272    9.1139   20.0993 H      81  UNL81       0.2090
    487 O           2.4734   10.8776   22.1516 O.3    82  UNL82      -0.3982
    488 C           1.2294   10.4487   22.6741 C.3    82  UNL82       0.0330
    489 H           1.3955    9.8782   23.5913 H      82  UNL82       0.0521
    490 H           0.7168    9.8288   21.9345 H      82  UNL82       0.0521
    491 H           0.6172   11.3253   22.8986 H      82  UNL82       0.0521
    492 H           2.9943   10.0787   21.9620 H      82  UNL82       0.2090
    493 O           2.8587   10.9998   27.4750 O.3    83  UNL83      -0.3982
    494 C           1.4575   11.2030   27.4750 C.3    83  UNL83       0.0330
    495 H           1.0009   10.5996   28.2635 H      83  UNL83       0.0521
    496 H           1.0476   10.9211   26.5021 H      83  UNL83       0.0521
    497 H           1.2517   12.2595   27.6623 H      83  UNL83       0.0521
    498 H           3.0102   10.0542   27.3064 H      83  UNL83       0.2090
    499 O           2.7986   14.7752   -0.4670 O.3    84  UNL84      -0.3982
    500 C           2.8526   13.4947   -1.0685 C.3    84  UNL84       0.0330
    501 H           3.4365   13.5486   -1.9907 H      84  UNL84       0.0521
    502 H           1.8386   13.1504   -1.2862 H      84  UNL84       0.0521
    503 H           3.3312   12.7973   -0.3770 H      84  UNL84       0.0521
    504 H           2.3693   15.3720   -1.1035 H      84  UNL84       0.2090
    505 O           0.3088   13.6316    0.6391 O.3    85  UNL85      -0.3982
    506 C           1.3630   13.7818    1.5721 C.3    85  UNL85       0.0330
    507 H           1.3546   14.7987    1.9724 H      85  UNL85       0.0521
    508 H           2.3176   13.5804    1.0800 H      85  UNL85       0.0521
    509 H           1.2191   13.0700    2.3884 H      85  UNL85       0.0521
    510 H           0.4635   14.2755   -0.0729 H      85  UNL85       0.2090
    511 O           3.2446   13.5438    6.7435 O.3    86  UNL86      -0.3982
    512 C           2.2187   14.1045    5.9450 C.3    86  UNL86       0.0330
    513 H           1.3567   14.3437    6.5727 H      86  UNL86       0.0521
    514 H           1.9305   13.3925    5.1678 H      86  UNL86       0.0521
    515 H           2.5916   15.0191    5.4780 H      86  UNL86       0.0521
    516 H           2.8845   12.7345    7.1444 H      86  UNL86       0.2090
    517 O           2.5260   15.5265    9.8070 O.3    87  UNL87      -0.3982
    518 C           2.5199   14.1235    9.6170 C.3    87  UNL87       0.0330
    519 H           1.8696   13.8717    8.7756 H      87  UNL87       0.0521
    520 H           2.1635   13.6334   10.5262 H      87  UNL87       0.0521
    521 H           3.5375   13.7899    9.4008 H      87  UNL87       0.0521
    522 H           1.6103   15.7931    9.9970 H      87  UNL87       0.2090
    523 O           2.8480   14.9439   12.2720 O.3    88  UNL88      -0.3982
    524 C           1.4461   15.0282   12.4508 C.3    88  UNL88       0.0330
    525 H           1.1597   14.4847   13.3546 H      88  UNL88       0.0521
    526 H           0.9407   14.6018   11.5808 H      88  UNL88       0.0521
    527 H           1.1637   16.0784   12.5549 H      88  UNL88       0.0521
    528 H           3.0685   14.0011   12.1826 H      88  UNL88       0.2090
    529 O           2.4675   13.9640   15.6730 O.3    89  UNL89      -0.3982
    530 C           2.7503   13.4473   16.9604 C.3    89  UNL89       0.0330
    531 H           1.8676   12.9341   17.3500 H      89  UNL89       0.0521
    532 H           3.0338   14.2648   17.6278 H      89  UNL89       0.0521
    533 H           3.5777   12.7380   16.8847 H      89  UNL89       0.0521
    534 H           1.7298   14.5898   15.7719 H      89  UNL89       0.2090
    535 O           2.3634   14.0618   20.2723 O.3    90  UNL90      -0.3982
    536 C           1.7460   15.2148   19.7301 C.3    90  UNL90       0.0330
    537 H           0.8167   15.4186   20.2676 H      90  UNL90       0.0521
    538 H           1.5381   15.0532   18.6696 H      90  UNL90       0.0521
    539 H           2.4226   16.0655   19.8409 H      90  UNL90       0.0521
    540 H           1.7399   13.3242   20.1595 H      90  UNL90       0.2090
    541 O           2.4574   13.8198   23.0490 O.3    91  UNL91      -0.3982
    542 C           1.7163   15.0034   22.8153 C.3    91  UNL91       0.0330
    543 H           1.3695   15.4113   23.7680 H      91  UNL91       0.0521
    544 H           0.8630   14.7787   22.1708 H      91  UNL91       0.0521
    545 H           2.3607   15.7344   22.3214 H      91  UNL91       0.0521
    546 H           1.8598   13.1905   23.4877 H      91  UNL91       0.2090
    547 O           2.0182   15.6186   26.0069 O.3    92  UNL92      -0.3982
    548 C           1.6173   14.2903   26.2888 C.3    92  UNL92       0.0330
    549 H           0.8392   13.9863   25.5842 H      92  UNL92       0.0521
    550 H           1.2396   14.2323   27.3125 H      92  UNL92       0.0521
    551 H           2.4802   13.6287   26.1831 H      92  UNL92       0.0521
    552 H           1.2322   16.1820   26.1088 H      92  UNL92       0.2090
    553 O           2.8366   16.7753    1.6722 O.3    93  UNL93      -0.3982
    554 C           1.4570   16.8823    1.3723 C.3    93  UNL93       0.0330
    555 H           0.8696   16.5376    2.2269 H      93  UNL93       0.0521
    556 H           1.2270   16.2786    0.4911 H      93  UNL93       0.0521
    557 H           1.2182   17.9285    1.1670 H      93  UNL93       0.0521
    558 H           3.0183   15.8367    1.8497 H      93  UNL93       0.2090
    559 O           4.4754   16.7343   14.1153 O.3    94  UNL94      -0.3982
    560 C           3.3276   17.4329   14.5614 C.3    94  UNL94       0.0330
    561 H           2.4363   17.0077   14.0935 H      94  UNL94       0.0521
    562 H           3.4196   18.4902   14.3013 H      94  UNL94       0.0521
    563 H           3.2499   17.3324   15.6465 H      94  UNL94       0.0521
    564 H           4.5178   16.8415   13.1498 H      94  UNL94       0.2090
    565 O           5.8430   -1.0907   -0.8836 O.3    95  UNL95      -0.3982
    566 C           5.5429   -1.0154    0.4979 C.3    95  UNL95       0.0330
    567 H           5.7518   -1.9786    0.9702 H      95  UNL95       0.0521
    568 H           4.4902   -0.7538    0.6293 H      95  UNL95       0.0521
    569 H           6.1674   -0.2446    0.9557 H      95  UNL95       0.0521
    570 H           5.2740   -1.7824   -1.2623 H      95  UNL95       0.2090
    571 O           7.0090   -0.5349    3.0920 O.3    96  UNL96      -0.3982
    572 C           5.9640    0.3768    3.3772 C.3    96  UNL96       0.0330
    573 H           5.3010   -0.0521    4.1326 H      96  UNL96       0.0521
    574 H           5.4040    0.5879    2.4630 H      96  UNL96       0.0521
    575 H           6.3963    1.3045    3.7594 H      96  UNL96       0.0521
    576 H           6.5950   -1.3476    2.7550 H      96  UNL96       0.2090
    577 O           6.0922    0.8244    7.4808 O.3    97  UNL97      -0.3982
    578 C           5.2128   -0.1646    6.9779 C.3    97  UNL97       0.0330
    579 H           5.7526   -1.1075    6.8598 H      97  UNL97       0.0521
    580 H           4.8101    0.1600    6.0154 H      97  UNL97       0.0521
    581 H           4.3921   -0.3034    7.6856 H      97  UNL97       0.0521
    582 H           6.8094    0.9256    6.8320 H      97  UNL97       0.2090
    583 O           7.1495   -0.8705    9.5101 O.3    98  UNL98      -0.3982
    584 C           5.7583   -1.0337    9.7165 C.3    98  UNL98       0.0330
    585 H           5.5826   -1.4419   10.7149 H      98  UNL98       0.0521
    586 H           5.3534   -1.7089    8.9588 H      98  UNL98       0.0521
    587 H           5.2700   -0.0601    9.6322 H      98  UNL98       0.0521
    588 H           7.5555   -1.7504    9.5910 H      98  UNL98       0.2090
    589 O           6.8027   -1.5899   12.7250 O.3    99  UNL99      -0.3982
    590 C           6.5757   -0.1926   12.6990 C.3    99  UNL99       0.0330
    591 H           6.6655    0.2109   13.7106 H      99  UNL99       0.0521
    592 H           5.5774    0.0079   12.3025 H      99  UNL99       0.0521
    593 H           7.3225    0.2767   12.0542 H      99  UNL99       0.0521
    594 H           6.1254   -1.9786   13.3044 H      99  UNL99       0.2090
    595 O           5.0479   -1.9710   15.8669 O.3   100  UNL100     -0.3982
    596 C           5.9426   -0.9893   16.3571 C.3   100  UNL100      0.0330
    597 H           5.4296   -0.0265   16.4205 H     100  UNL100      0.0521
    598 H           6.8029   -0.9124   15.6877 H     100  UNL100      0.0521
    599 H           6.2834   -1.2843   17.3523 H     100  UNL100      0.0521
    600 H           4.7629   -1.6820   14.9833 H     100  UNL100      0.2090
    601 O           5.6011   -1.2277   19.6657 O.3   101  UNL101     -0.3982
    602 C           5.6369    0.1858   19.7380 C.3   101  UNL101      0.0330
    603 H           4.6816    0.5565   20.1181 H     101  UNL101      0.0521
    604 H           5.8303    0.5976   18.7445 H     101  UNL101      0.0521
    605 H           6.4381    0.4867   20.4170 H     101  UNL101      0.0521
    606 H           4.8812   -1.4645   19.0566 H     101  UNL101      0.2090
    607 O           4.8874   -1.6252   23.3370 O.3   102  UNL102     -0.3982
    608 C           6.0766   -0.8792   23.1534 C.3   102  UNL102      0.0330
    609 H           6.0084    0.0595   23.7089 H     102  UNL102      0.0521
    610 H           6.2195   -0.6757   22.0894 H     102  UNL102      0.0521
    611 H           6.9223   -1.4609   23.5277 H     102  UNL102      0.0521
    612 H           4.1551   -1.0840   22.9958 H     102  UNL102      0.2090
    613 O           5.2053    0.2576   26.2354 O.3   103  UNL103     -0.3982
    614 C           6.4105   -0.4579   26.4360 C.3   103  UNL103      0.0330
    615 H           7.1514   -0.1396   25.6983 H     103  UNL103      0.0521
    616 H           6.2198   -1.5293   26.3377 H     103  UNL103      0.0521
    617 H           6.7857   -0.2474   27.4402 H     103  UNL103      0.0521
    618 H           4.8967    0.0511   25.3367 H     103  UNL103      0.2090
    619 O           5.4857    1.7627   -1.6617 O.3   104  UNL104     -0.3982
    620 C           4.3640    1.3212   -0.9191 C.3   104  UNL104      0.0330
    621 H           4.6246    1.2708    0.1410 H     104  UNL104      0.0521
    622 H           4.0543    0.3361   -1.2763 H     104  UNL104      0.0521
    623 H           3.5448    2.0307   -1.0574 H     104  UNL104      0.0521
    624 H           6.1958    1.1138   -1.5195 H     104  UNL104      0.2090
    625 O           7.9206    3.6918    1.1348 O.3   105  UNL105     -0.3982
    626 C           6.5530    3.3792    1.3256 C.3   105  UNL105      0.0330
    627 H           6.4444    2.7339    2.2008 H     105  UNL105      0.0521
    628 H           6.1664    2.8741    0.4370 H     105  UNL105      0.0521
    629 H           5.9960    4.3051    1.4869 H     105  UNL105      0.0521
    630 H           8.3889    2.8513    0.9941 H     105  UNL105      0.2090
    631 O           5.7598    2.9442    5.7585 O.3   106  UNL106     -0.3982
    632 C           5.3507    3.7698    6.8334 C.3   106  UNL106      0.0330
    633 H           5.0804    3.1471    7.6899 H     106  UNL106      0.0521
    634 H           4.4947    4.3744    6.5242 H     106  UNL106      0.0521
    635 H           6.1776    4.4278    7.1107 H     106  UNL106      0.0521
    636 H           5.0061    2.3720    5.5348 H     106  UNL106      0.2090
    637 O           7.2287    3.1982    9.2338 O.3   107  UNL107     -0.3982
    638 C           6.2754    2.7345   10.1723 C.3   107  UNL107      0.0330
    639 H           6.7171    1.9407   10.7798 H     107  UNL107      0.0521
    640 H           5.3964    2.3574    9.6441 H     107  UNL107      0.0521
    641 H           5.9809    3.5642   10.8191 H     107  UNL107      0.0521
    642 H           7.4707    2.4405    8.6744 H     107  UNL107      0.2090
    643 O           6.8676    3.1978   13.0332 O.3   108  UNL108     -0.3982
    644 C           5.5599    2.7341   13.3149 C.3   108  UNL108      0.0330
    645 H           5.6082    1.9332   14.0569 H     108  UNL108      0.0521
    646 H           5.0969    2.3665   12.3959 H     108  UNL108      0.0521
    647 H           4.9676    3.5614   13.7129 H     108  UNL108      0.0521
    648 H           7.3691    2.4424   12.6818 H     108  UNL108      0.2090
    649 O           7.6978    3.2984   16.7498 O.3   109  UNL109     -0.3982
    650 C           6.3556    2.8697   16.6106 C.3   109  UNL109      0.0330
    651 H           6.3237    1.7783   16.5638 H     109  UNL109      0.0521
    652 H           5.9285    3.2967   15.7000 H     109  UNL109      0.0521
    653 H           5.7818    3.2121   17.4749 H     109  UNL109      0.0521
    654 H           8.1818    2.9801   15.9689 H     109  UNL109      0.2090
    655 O           6.1888    3.2573   19.8073 O.3   110  UNL110     -0.3982
    656 C           4.7730    3.2573   19.8073 C.3   110  UNL110      0.0330
    657 H           4.4077    2.8459   20.7515 H     110  UNL110      0.0521
    658 H           4.4078    2.6571   18.9704 H     110  UNL110      0.0521
    659 H           4.4177    4.2847   19.6983 H     110  UNL110      0.0521
    660 H           6.4745    2.3331   19.9053 H     110  UNL110      0.2090
    661 O           7.3872    3.8656   23.0135 O.3   111  UNL111     -0.3982
    662 C           6.2578    3.2444   23.5993 C.3   111  UNL111      0.0330
    663 H           6.4433    2.1725   23.7031 H     111  UNL111      0.0521
    664 H           5.3805    3.4140   22.9703 H     111  UNL111      0.0521
    665 H           6.0851    3.6794   24.5865 H     111  UNL111      0.0521
    666 H           7.5154    3.4594   22.1394 H     111  UNL111      0.2090
    667 O           6.0409    2.1996   27.9511 O.3   112  UNL112     -0.3982
    668 C           5.8042    3.4085   27.2533 C.3   112  UNL112      0.0330
    669 H           5.3419    4.1345   27.9267 H     112  UNL112      0.0521
    670 H           5.1474    3.2159   26.4015 H     112  UNL112      0.0521
    671 H           6.7571    3.8037   26.8937 H     112  UNL112      0.0521
    672 H           5.1778    1.8731   28.2579 H     112  UNL112      0.2090
    673 O           6.3680    5.6153   -0.6335 O.3   113  UNL113     -0.3982
    674 C           4.9657    5.4418   -0.5446 C.3   113  UNL113      0.0330
    675 H           4.7457    4.4925   -0.0499 H     113  UNL113      0.0521
    676 H           4.5322    5.4514   -1.5476 H     113  UNL113      0.0521
    677 H           4.5427    6.2617    0.0406 H     113  UNL113      0.0521
    678 H           6.7150    4.8735   -1.1579 H     113  UNL113      0.2090
    679 O           7.3524    6.1815    3.4459 O.3   114  UNL114     -0.3982
    680 C           6.3459    7.0868    3.0312 C.3   114  UNL114      0.0330
    681 H           5.3862    6.7873    3.4597 H     114  UNL114      0.0521
    682 H           6.2848    7.0902    1.9402 H     114  UNL114      0.0521
    683 H           6.6026    8.0888    3.3827 H     114  UNL114      0.0521
    684 H           7.0973    5.3017    3.1197 H     114  UNL114      0.2090
    685 O           6.6434    7.6830    6.7209 O.3   115  UNL115     -0.3982
    686 C           5.6174    6.8846    6.1603 C.3   115  UNL115      0.0330
    687 H           4.9692    6.5105    6.9567 H     115  UNL115      0.0521
    688 H           6.0621    6.0485    5.6150 H     115  UNL115      0.0521
    689 H           5.0291    7.4946    5.4709 H     115  UNL115      0.0521
    690 H           7.1481    7.1151    7.3277 H     115  UNL115      0.2090
    691 O           7.1362    6.2154    9.4297 O.3   116  UNL116     -0.3982
    692 C           5.7494    6.0225    9.6395 C.3   116  UNL116      0.0330
    693 H           5.5130    6.1874   10.6936 H     116  UNL116      0.0521
    694 H           5.4739    5.0061    9.3479 H     116  UNL116      0.0521
    695 H           5.1947    6.7377    9.0276 H     116  UNL116      0.0521
    696 H           7.6021    5.5673    9.9852 H     116  UNL116      0.2090
    697 O           7.4849    6.1833   12.7142 O.3   117  UNL117     -0.3982
    698 C           6.2951    6.2766   13.4758 C.3   117  UNL117      0.0330
    699 H           6.0348    5.2907   13.8690 H     117  UNL117      0.0521
    700 H           5.4865    6.6543   12.8452 H     117  UNL117      0.0521
    701 H           6.4585    6.9665   14.3070 H     117  UNL117      0.0521
    702 H           7.3094    5.5649   11.9846 H     117  UNL117      0.2090
    703 O           7.0198    6.4379   17.2669 O.3   118  UNL118     -0.3982
    704 C           5.7689    5.9947   16.7737 C.3   118  UNL118      0.0330
    705 H           5.2590    5.4102   17.5436 H     118  UNL118      0.0521
    706 H           5.9239    5.3843   15.8807 H     118  UNL118      0.0521
    707 H           5.1599    6.8645   16.5167 H     118  UNL118      0.0521
    708 H           7.5377    5.6447   17.4863 H     118  UNL118      0.2090
    709 O           7.2863    6.2162   20.5667 O.3   119  UNL119     -0.3982
    710 C           6.1153    6.8113   20.0386 C.3   119  UNL119      0.0330
    711 H           5.4300    7.0557   20.8540 H     119  UNL119      0.0521
    712 H           5.6367    6.1194   19.3412 H     119  UNL119      0.0521
    713 H           6.3896    7.7269   19.5093 H     119  UNL119      0.0521
    714 H           7.0114    5.4068   21.0301 H     119  UNL119      0.2090
    715 O           4.4689    6.5786   24.2786 O.3   120  UNL120     -0.3982
    716 C           5.6000    6.2141   23.5090 C.3   120  UNL120      0.0330
    717 H           5.3036    5.4936   22.7425 H     120  UNL120      0.0521
    718 H           6.3598    5.7765   24.1611 H     120  UNL120      0.0521
    719 H           6.0059    7.1075   23.0287 H     120  UNL120      0.0521
    720 H           4.1309    5.7661   24.6922 H     120  UNL120      0.2090
    721 O           6.5260    6.7413   27.7940 O.3   121  UNL121     -0.3982
    722 C           5.2162    6.6804   27.2600 C.3   121  UNL121      0.0330
    723 H           4.4952    6.5650   28.0731 H     121  UNL121      0.0521
    724 H           5.1419    5.8362   26.5702 H     121  UNL121      0.0521
    725 H           5.0088    7.6078   26.7209 H     121  UNL121      0.0521
    726 H           6.6812    5.9055   28.2661 H     121  UNL121      0.2090
    727 O           6.2893    9.7243   -1.8000 O.3   122  UNL122     -0.3982
    728 C           7.2503   10.3190   -0.9471 C.3   122  UNL122      0.0330
    729 H           7.2827    9.7766    0.0011 H     122  UNL122      0.0521
    730 H           6.9859   11.3647   -0.7721 H     122  UNL122      0.0521
    731 H           8.2306   10.2687   -1.4268 H     122  UNL122      0.0521
    732 H           5.4304    9.7839   -1.3480 H     122  UNL122      0.2090
    733 O           4.6257    9.3676    1.5663 O.3   123  UNL123     -0.3982
    734 C           4.5685   10.7644    1.3424 C.3   123  UNL123      0.0330
    735 H           3.5252   11.0782    1.2565 H     123  UNL123      0.0521
    736 H           5.1106   11.0098    0.4259 H     123  UNL123      0.0521
    737 H           5.0331   11.2789    2.1868 H     123  UNL123      0.0521
    738 H           4.2063    8.9382    0.8013 H     123  UNL123      0.2090
    739 O           6.7885   10.2075    5.2943 O.3   124  UNL124     -0.3982
    740 C           7.0095   10.3938    6.6803 C.3   124  UNL124      0.0330
    741 H           7.7597    9.6800    7.0297 H     124  UNL124      0.0521
    742 H           6.0720   10.2480    7.2224 H     124  UNL124      0.0521
    743 H           7.3710   11.4109    6.8489 H     124  UNL124      0.0521
    744 H           6.4685    9.2970    5.1758 H     124  UNL124      0.2090
    745 O           6.1046    8.9879    9.2844 O.3   125  UNL125     -0.3982
    746 C           5.4881   10.0883    9.9275 C.3   125  UNL125      0.0330
    747 H           4.5705    9.7566   10.4197 H     125  UNL125      0.0521
    748 H           5.2595   10.8612    9.1897 H     125  UNL125      0.0521
    749 H           6.1742   10.4929   10.6751 H     125  UNL125      0.0521
    750 H           5.4725    8.6502    8.6272 H     125  UNL125      0.2090
    751 O           6.3975    9.3448   13.0226 O.3   126  UNL126     -0.3982
    752 C           4.9933    9.2842   12.8521 C.3   126  UNL126      0.0330
    753 H           4.6216   10.2610   12.5324 H     126  UNL126      0.0521
    754 H           4.5231    8.9943   13.7949 H     126  UNL126      0.0521
    755 H           4.7601    8.5399   12.0871 H     126  UNL126      0.0521
    756 H           6.5736   10.0130   13.7067 H     126  UNL126      0.2090
    757 O           6.0017    9.5658   16.9982 O.3   127  UNL127     -0.3982
    758 C           5.5413   10.7486   16.3709 C.3   127  UNL127      0.0330
    759 H           4.7528   11.2008   16.9777 H     127  UNL127      0.0521
    760 H           5.1579   10.5089   15.3761 H     127  UNL127      0.0521
    761 H           6.3743   11.4494   16.2788 H     127  UNL127      0.0521
    762 H           5.2412    8.9637   17.0661 H     127  UNL127      0.2090
    763 O           7.5331   10.2583   19.5561 O.3   128  UNL128     -0.3982
    764 C           6.4947   10.1084   20.5068 C.3   128  UNL128      0.0330
    765 H           6.7016    9.2422   21.1403 H     128  UNL128      0.0521
    766 H           5.5418    9.9751   19.9889 H     128  UNL128      0.0521
    767 H           6.4476   11.0071   21.1262 H     128  UNL128      0.0521
    768 H           7.5505    9.4461   19.0216 H     128  UNL128      0.2090
    769 O           6.5595    9.5480   24.0217 O.3   129  UNL129     -0.3982
    770 C           5.1572    9.5440   23.8269 C.3   129  UNL129      0.0330
    771 H           4.9107    8.9276   22.9588 H     129  UNL129      0.0521
    772 H           4.8071   10.5674   23.6717 H     129  UNL129      0.0521
    773 H           4.6763    9.1275   24.7151 H     129  UNL129      0.0521
    774 H           6.9585    9.9226   23.2180 H     129  UNL129      0.2090
    775 O           7.2377   10.4526   27.0916 O.3   130  UNL130     -0.3982
    776 C           6.0030   10.0431   27.6506 C.3   130  UNL130      0.0330
    777 H           6.1601    9.1611   28.2765 H     130  UNL130      0.0521
    778 H           5.2975    9.8129   26.8486 H     130  UNL130      0.0521
    779 H           5.6033   10.8550   28.2626 H     130  UNL130      0.0521
    780 H           7.5676    9.7124   26.5544 H     130  UNL130      0.2090
    781 O           5.3355   14.5509   -0.6175 O.3   131  UNL131     -0.3982
    782 C           5.4038   13.7598    0.5546 C.3   131  UNL131      0.0330
    783 H           4.3926   13.5229    0.8949 H     131  UNL131      0.0521
    784 H           5.9430   14.3056    1.3327 H     131  UNL131      0.0521
    785 H           5.9359   12.8331    0.3274 H     131  UNL131      0.0521
    786 H           4.8585   15.3657   -0.3850 H     131  UNL131      0.2090
    787 O           5.3673   13.1195    3.4871 O.3   132  UNL132     -0.3982
    788 C           4.0454   13.4768    3.1276 C.3   132  UNL132      0.0330
    789 H           3.4094   13.4651    4.0162 H     132  UNL132      0.0521
    790 H           3.6654   12.7710    2.3851 H     132  UNL132      0.0521
    791 H           4.0528   14.4825    2.7008 H     132  UNL132      0.0521
    792 H           5.3290   12.2233    3.8625 H     132  UNL132      0.2090
    793 O           6.4651   15.2989    6.8973 O.3   133  UNL133     -0.3982
    794 C           5.2937   15.3935    6.1077 C.3   133  UNL133      0.0330
    795 H           4.4386   15.6223    6.7487 H     133  UNL133      0.0521
    796 H           5.1283   14.4483    5.5851 H     133  UNL133      0.0521
    797 H           5.4223   16.1944    5.3758 H     133  UNL133      0.0521
    798 H           6.3213   14.5806    7.5368 H     133  UNL133      0.2090
    799 O           6.0907   13.1416    9.3413 O.3   134  UNL134     -0.3982
    800 C           6.1930   14.3179   10.1226 C.3   134  UNL134      0.0330
    801 H           6.3961   15.1721    9.4719 H     134  UNL134      0.0521
    802 H           6.9980   14.2026   10.8524 H     134  UNL134      0.0521
    803 H           5.2486   14.4790   10.6476 H     134  UNL134      0.0521
    804 H           6.9428   13.0249    8.8877 H     134  UNL134      0.2090
    805 O           6.2560   14.2040   13.0265 O.3   135  UNL135     -0.3982
    806 C           5.5725   13.1125   13.6145 C.3   135  UNL135      0.0330
    807 H           4.5436   13.4041   13.8393 H     135  UNL135      0.0521
    808 H           6.0856   12.8111   14.5309 H     135  UNL135      0.0521
    809 H           5.5665   12.2765   12.9111 H     135  UNL135      0.0521
    810 H           6.2450   14.9299   13.6734 H     135  UNL135      0.2090
    811 O           5.6564   14.7169   16.5593 O.3   136  UNL136     -0.3982
    812 C           7.0357   14.4910   16.3337 C.3   136  UNL136      0.0330
    813 H           7.2115   13.4226   16.1858 H     136  UNL136      0.0521
    814 H           7.6097   14.8503   17.1913 H     136  UNL136      0.0521
    815 H           7.3432   15.0360   15.4382 H     136  UNL136      0.0521
    816 H           5.4128   14.2212   17.3596 H     136  UNL136      0.2090
    817 O           6.3830   13.2303   19.5502 O.3   137  UNL137     -0.3982
    818 C           5.0243   12.8323   19.5520 C.3   137  UNL137      0.0330
    819 H           4.4282   13.5652   19.0025 H     137  UNL137      0.0521
    820 H           4.6677   12.7552   20.5819 H     137  UNL137      0.0521
    821 H           4.9389   11.8579   19.0653 H     137  UNL137      0.0521
    822 H           6.4273   14.0973   19.9881 H     137  UNL137      0.2090
    823 O           5.4612   14.5157   24.1781 O.3   138  UNL138     -0.3982
    824 C           5.6116   13.1146   24.0404 C.3   138  UNL138      0.0330
    825 H           6.2429   12.8983   23.1750 H     138  UNL138      0.0521
    826 H           4.6296   12.6527   23.9131 H     138  UNL138      0.0521
    827 H           6.0845   12.7178   24.9418 H     138  UNL138      0.0521
    828 H           5.0394   14.8391   23.3638 H     138  UNL138      0.2090
    829 O           5.4831   13.3855   27.3615 O.3   139  UNL139     -0.3982
    830 C           5.4196   14.7810   27.5914 C.3   139  UNL139      0.0330
    831 H           4.4668   15.0302   28.0652 H     139  UNL139      0.0521
    832 H           5.5163   15.3124   26.6415 H     139  UNL139      0.0521
    833 H           6.2396   15.0698   28.2531 H     139  UNL139      0.0521
    834 H           4.7439   13.1591   26.7717 H     139  UNL139      0.2090
    835 O           6.5590   16.3181    3.1099 O.3   140  UNL140     -0.3982
    836 C           5.8803   17.1852    2.2200 C.3   140  UNL140      0.0330
    837 H           5.1130   17.7406    2.7651 H     140  UNL140      0.0521
    838 H           5.4220   16.6004    1.4188 H     140  UNL140      0.0521
    839 H           6.5990   17.8871    1.7905 H     140  UNL140      0.0521
    840 H           5.8961   15.7075    3.4750 H     140  UNL140      0.2090
    841 O           9.4138   -0.9632   -1.9111 O.3   141  UNL141     -0.3982
    842 C          10.2757   -1.0027   -0.7886 C.3   141  UNL141      0.0330
    843 H          11.1421   -1.6290   -1.0151 H     141  UNL141      0.0521
    844 H           9.7363   -1.4058    0.0720 H     141  UNL141      0.0521
    845 H          10.6115    0.0121   -0.5626 H     141  UNL141      0.0521
    846 H           9.1323   -1.8770   -2.0875 H     141  UNL141      0.2090
    847 O          11.3539    0.6585    2.9799 O.3   142  UNL142     -0.3982
    848 C          10.1684   -0.1105    2.8906 C.3   142  UNL142      0.0330
    849 H           9.3731    0.3769    3.4599 H     142  UNL142      0.0521
    850 H          10.3525   -1.1125    3.2857 H     142  UNL142      0.0521
    851 H           9.8707   -0.1838    1.8420 H     142  UNL142      0.0521
    852 H          11.5934    0.7059    3.9211 H     142  UNL142      0.2090
    853 O          10.3223   -1.1424    5.7804 O.3   143  UNL143     -0.3982
    854 C           8.9212   -0.9879    5.9123 C.3   143  UNL143      0.0330
    855 H           8.6714   -0.7997    6.9595 H     143  UNL143      0.0521
    856 H           8.4194   -1.8941    5.5642 H     143  UNL143      0.0521
    857 H           8.5985   -0.1392    5.3048 H     143  UNL143      0.0521
    858 H          10.5790   -1.9023    6.3301 H     143  UNL143      0.2090
    859 O           9.3439    0.7965   10.0528 O.3   144  UNL144     -0.3982
    860 C          10.2490   -0.0760    9.4015 C.3   144  UNL144      0.0330
    861 H           9.8683   -1.0993    9.4493 H     144  UNL144      0.0521
    862 H          11.2265   -0.0165    9.8862 H     144  UNL144      0.0521
    863 H          10.3441    0.2266    8.3560 H     144  UNL144      0.0521
    864 H           9.2801    0.5033   10.9778 H     144  UNL144      0.2090
    865 O           9.5770   -1.0318   12.8751 O.3   145  UNL145     -0.3982
    866 C          10.9766   -0.9850   13.0834 C.3   145  UNL145      0.0330
    867 H          11.4928   -1.2594   12.1600 H     145  UNL145      0.0521
    868 H          11.2498   -1.6755   13.8851 H     145  UNL145      0.0521
    869 H          11.2597    0.0310   13.3684 H     145  UNL145      0.0521
    870 H           9.3560   -1.9448   12.6237 H     145  UNL145      0.2090
    871 O           8.5187    0.3948   17.2399 O.3   146  UNL146     -0.3982
    872 C           9.4063   -0.2295   16.3306 C.3   146  UNL146      0.0330
    873 H          10.4377   -0.0197   16.6246 H     146  UNL146      0.0521
    874 H           9.2200    0.1468   15.3218 H     146  UNL146      0.0521
    875 H           9.2359   -1.3084   16.3519 H     146  UNL146      0.0521
    876 H           8.6932    1.3505   17.1989 H     146  UNL146      0.2090
    877 O          10.5984   -0.7962   20.4318 O.3   147  UNL147     -0.3982
    878 C           9.3046   -1.0617   19.9217 C.3   147  UNL147      0.0330
    879 H           8.8108   -1.8082   20.5488 H     147  UNL147      0.0521
    880 H           9.3847   -1.4279   18.8954 H     147  UNL147      0.0521
    881 H           8.7221   -0.1375   19.9320 H     147  UNL147      0.0521
    882 H          11.0914   -1.6341   20.4103 H     147  UNL147      0.2090
    883 O          10.0960   -0.4856   24.3681 O.3   148  UNL148     -0.3982
    884 C           9.4786    0.3618   23.4166 C.3   148  UNL148      0.0330
    885 H           8.6136   -0.1456   22.9824 H     148  UNL148      0.0521
    886 H          10.1969    0.6155   22.6331 H     148  UNL148      0.0521
    887 H           9.1493    1.2761   23.9158 H     148  UNL148      0.0521
    888 H          10.3775   -1.2878   23.8961 H     148  UNL148      0.2090
    889 O          10.8965   -0.8415   27.4750 O.3   149  UNL149     -0.3982
    890 C           9.4954   -1.0446   27.4750 C.3   149  UNL149      0.0330
    891 H           9.2290   -1.7529   28.2635 H     149  UNL149      0.0521
    892 H           9.1825   -1.4313   26.5021 H     149  UNL149      0.0521
    893 H           8.9980   -0.0901   27.6623 H     149  UNL149      0.0521
    894 H          11.3105   -1.7050   27.3064 H     149  UNL149      0.2090
    895 O           8.8508    3.1907   -1.9799 O.3   150  UNL150     -0.3982
    896 C          10.0172    3.1030   -1.1822 C.3   150  UNL150      0.0330
    897 H          10.0447    2.1324   -0.6807 H     150  UNL150      0.0521
    898 H          10.0151    3.9074   -0.4426 H     150  UNL150      0.0521
    899 H          10.8952    3.2039   -1.8244 H     150  UNL150      0.0521
    900 H           8.0888    3.0979   -1.3830 H     150  UNL150      0.2090
    901 O           8.4609    3.1889    3.7809 O.3   151  UNL151     -0.3982
    902 C           9.7699    3.4184    3.2926 C.3   151  UNL151      0.0330
    903 H          10.4314    3.6707    4.1252 H     151  UNL151      0.0521
    904 H           9.7511    4.2358    2.5677 H     151  UNL151      0.0521
    905 H          10.1316    2.5101    2.8050 H     151  UNL151      0.0521
    906 H           8.1669    4.0115    4.2078 H     151  UNL151      0.2090
    907 O          10.3846    3.4211    6.5553 O.3   152  UNL152     -0.3982
    908 C           9.2024    2.6510    6.6725 C.3   152  UNL152      0.0330
    909 H           8.3341    3.3144    6.6861 H     152  UNL152      0.0521
    910 H           9.2393    2.0629    7.5928 H     152  UNL152      0.0521
    911 H           9.1304    1.9777    5.8152 H     152  UNL152      0.0521
    912 H          10.4210    4.0083    7.3295 H     152  UNL152      0.2090
    913 O          11.7059    2.5112   10.8771 O.3   153  UNL153     -0.3982
    914 C          10.9471    3.2708    9.9542 C.3   153  UNL153      0.0330
    915 H          10.9511    2.7735    8.9811 H     153  UNL153      0.0521
    916 H          11.3759    4.2720    9.8655 H     153  UNL153      0.0521
    917 H           9.9196    3.3478   10.3174 H     153  UNL153      0.0521
    918 H          12.6121    2.4601   10.5282 H     153  UNL153      0.2090
    919 O          10.2795    2.7404   13.3374 O.3   154  UNL154     -0.3982
    920 C           9.9065    4.0692   13.6532 C.3   154  UNL154      0.0330
    921 H           9.5091    4.1051   14.6706 H     154  UNL154      0.0521
    922 H           9.1513    4.4150   12.9432 H     154  UNL154      0.0521
    923 H          10.7879    4.7111   13.5857 H     154  UNL154      0.0521
    924 H           9.4775    2.1947   13.4056 H     154  UNL154      0.2090
    925 O          12.0934    2.0798   17.0006 O.3   155  UNL155     -0.3982
    926 C          10.9846    2.9408   16.8169 C.3   155  UNL155      0.0330
    927 H          10.1493    2.3759   16.3956 H     155  UNL155      0.0521
    928 H          11.2627    3.7562   16.1447 H     155  UNL155      0.0521
    929 H          10.6910    3.3536   17.7849 H     155  UNL155      0.0521
    930 H          12.3309    1.7291   16.1253 H     155  UNL155      0.2090
    931 O           8.9826    2.7663   19.4358 O.3   156  UNL156     -0.3982
    932 C           9.8482    3.0210   20.5269 C.3   156  UNL156      0.0330
    933 H           9.4017    3.7759   21.1789 H     156  UNL156      0.0521
    934 H          10.8133    3.3716   20.1533 H     156  UNL156      0.0521
    935 H           9.9922    2.0957   21.0896 H     156  UNL156      0.0521
    936 H           8.8739    3.6049   18.9556 H     156  UNL156      0.2090
    937 O          10.6377    3.8029   23.3761 O.3   157  UNL157     -0.3982
    938 C          11.5884    2.7538   23.3740 C.3   157  UNL157      0.0330
    939 H          11.6391    2.3087   22.3772 H     157  UNL157      0.0521
    940 H          11.2996    1.9977   24.1081 H     157  UNL157      0.0521
    941 H          12.5671    3.1606   23.6391 H     157  UNL157      0.0521
    942 H           9.7800    3.4117   23.1376 H     157  UNL157      0.2090
    943 O           9.1032    3.8299   25.7277 O.3   158  UNL158     -0.3982
    944 C           9.9870    3.2316   26.6579 C.3   158  UNL158      0.0330
    945 H           9.9333    3.7667   27.6092 H     158  UNL158      0.0521
    946 H          11.0066    3.2645   26.2662 H     158  UNL158      0.0521
    947 H           9.6912    2.1910   26.8105 H     158  UNL158      0.0521
    948 H           9.3906    4.7517   25.6128 H     158  UNL158      0.2090
    949 O           9.3907    6.2400   -0.6952 O.3   159  UNL159     -0.3982
    950 C           8.5840    7.2777   -1.2213 C.3   159  UNL159      0.0330
    951 H           7.9988    7.7292   -0.4163 H     159  UNL159      0.0521
    952 H           7.9182    6.8706   -1.9861 H     159  UNL159      0.0521
    953 H           9.2293    8.0368   -1.6696 H     159  UNL159      0.0521
    954 H           8.7909    5.5819   -0.3045 H     159  UNL159      0.2090
    955 O          11.4984    6.4842    3.3353 O.3   160  UNL160     -0.3982
    956 C          10.7541    6.7463    2.1598 C.3   160  UNL160      0.0330
    957 H           9.6957    6.8477    2.4126 H     160  UNL160      0.0521
    958 H          10.8932    5.9278    1.4494 H     160  UNL160      0.0521
    959 H          11.1108    7.6776    1.7137 H     160  UNL160      0.0521
    960 H          11.1597    5.6526    3.7085 H     160  UNL160      0.2090
    961 O           9.1862    6.0690    7.1110 O.3   161  UNL161     -0.3982
    962 C           9.4334    6.5550    5.8044 C.3   161  UNL161      0.0330
    963 H          10.5110    6.5909    5.6259 H     161  UNL161      0.0521
    964 H           9.0023    7.5534    5.6985 H     161  UNL161      0.0521
    965 H           8.9687    5.8811    5.0809 H     161  UNL161      0.0521
    966 H           9.6102    6.6869    7.7307 H     161  UNL161      0.2090
    967 O          11.5287    6.8742    9.9884 O.3   162  UNL162     -0.3982
    968 C          10.1214    6.7348   10.0548 C.3   162  UNL162      0.0330
    969 H           9.8295    5.7700    9.6327 H     162  UNL162      0.0521
    970 H           9.6473    7.5467    9.4979 H     162  UNL162      0.0521
    971 H           9.8086    6.7821   11.1006 H     162  UNL162      0.0521
    972 H          11.7763    6.8284    9.0492 H     162  UNL162      0.2090
    973 O          12.4317    6.6571   14.1515 O.3   163  UNL163     -0.3982
    974 C          11.4862    6.9701   13.1452 C.3   163  UNL163      0.0330
    975 H          10.4764    6.8908   13.5554 H     163  UNL163      0.0521
    976 H          11.6051    6.2811   12.3054 H     163  UNL163      0.0521
    977 H          11.6583    7.9928   12.8017 H     163  UNL163      0.0521
    978 H          12.2542    5.7444   14.4364 H     163  UNL163      0.2090
    979 O           9.7071    6.7208   15.9814 O.3   164  UNL164     -0.3982
    980 C           9.5021    8.0926   16.2655 C.3   164  UNL164      0.0330
    981 H          10.4444    8.6341   16.1512 H     164  UNL164      0.0521
    982 H           9.1280    8.2022   17.2864 H     164  UNL164      0.0521
    983 H           8.7661    8.4944   15.5651 H     164  UNL164      0.0521
    984 H          10.3642    6.3922   16.6183 H     164  UNL164      0.2090
    985 O          11.6716    6.3475   19.2440 O.3   165  UNL165     -0.3982
    986 C          10.2888    6.3675   19.5472 C.3   165  UNL165      0.0330
    987 H          10.0614    7.2449   20.1578 H     165  UNL165      0.0521
    988 H          10.0198    5.4558   20.0860 H     165  UNL165      0.0521
    989 H           9.7213    6.4181   18.6150 H     165  UNL165      0.0521
    990 H          12.1490    6.3025   20.0899 H     165  UNL165      0.2090
    991 O           9.0344    6.9952   24.1111 O.3   166  UNL166     -0.3982
    992 C           9.7451    6.6403   22.9391 C.3   166  UNL166      0.0330
    993 H           9.7913    7.4996   22.2656 H     166  UNL166      0.0521
    994 H           9.2427    5.8043   22.4465 H     166  UNL166      0.0521
    995 H          10.7591    6.3415   23.2153 H     166  UNL166      0.0521
    996 H           8.1392    7.2554   23.8346 H     166  UNL166      0.2090
    997 O          10.6700    7.6024   28.0670 O.3   167  UNL167     -0.3982
    998 C           9.7385    6.9137   27.2530 C.3   167  UNL167      0.0330
    999 H           9.3884    6.0195   27.7748 H     167  UNL167      0.0521
   1000 H          10.2139    6.6352   26.3094 H     167  UNL167      0.0521
   1001 H           8.8894    7.5707   27.0508 H     167  UNL167      0.0521
   1002 H          11.4116    6.9947   28.2294 H     167  UNL167      0.2090
   1003 O          10.9219    9.8501   -1.7280 O.3   168  UNL168     -0.3982
   1004 C          10.8928    9.7906   -0.3138 C.3   168  UNL168      0.0330
   1005 H          11.3848   10.6747    0.0992 H     168  UNL168      0.0521
   1006 H          11.4028    8.8852    0.0242 H     168  UNL168      0.0521
   1007 H           9.8526    9.7660    0.0194 H     168  UNL168      0.0521
   1008 H          11.8570    9.8706   -1.9939 H     168  UNL168      0.2090
   1009 O           8.0562   10.1256    2.5936 O.3   169  UNL169     -0.3982
   1010 C           9.0683    9.8859    3.5542 C.3   169  UNL169      0.0330
   1011 H          10.0231    9.7266    3.0469 H     169  UNL169      0.0521
   1012 H           8.8076    9.0062    4.1477 H     169  UNL169      0.0521
   1013 H           9.1478   10.7553    4.2110 H     169  UNL169      0.0521
   1014 H           8.0089    9.3377    2.0258 H     169  UNL169      0.2090
   1015 O          11.4634   11.1115    5.8101 O.3   170  UNL170     -0.3982
   1016 C          11.2515   10.0345    6.7044 C.3   170  UNL170      0.0330
   1017 H          11.8640    9.1818    6.4010 H     170  UNL170      0.0521
   1018 H          10.1944    9.7578    6.6988 H     170  UNL170      0.0521
   1019 H          11.5388   10.3469    7.7111 H     170  UNL170      0.0521
   1020 H          11.1998   10.8047    4.9259 H     170  UNL170      0.2090
   1021 O          10.6104   10.4354    9.9714 O.3   171  UNL171     -0.3982
   1022 C           9.2988   10.0644    9.5886 C.3   171  UNL171      0.0330
   1023 H           8.8477    9.4539   10.3748 H     171  UNL171      0.0521
   1024 H           9.3370    9.5020    8.6525 H     171  UNL171      0.0521
   1025 H           8.7019   10.9679    9.4441 H     171  UNL171      0.0521
   1026 H          11.1161    9.6137   10.0922 H     171  UNL171      0.2090
   1027 O          10.7368   10.8794   13.0350 O.3   172  UNL172     -0.3982
   1028 C           9.3357   10.9085   12.8340 C.3   172  UNL172      0.0330
   1029 H           8.8459   11.2955   13.7310 H     172  UNL172      0.0521
   1030 H           8.9769    9.8996   12.6164 H     172  UNL172      0.0521
   1031 H           9.1117   11.5628   11.9882 H     172  UNL172      0.0521
   1032 H          10.9048   10.2914   13.7911 H     172  UNL172      0.2090
   1033 O           9.8535   11.2402   17.6172 O.3   173  UNL173     -0.3982
   1034 C           9.2334   11.1243   16.3497 C.3   173  UNL173      0.0330
   1035 H           8.8972   12.1091   16.0160 H     173  UNL173      0.0521
   1036 H           8.3830   10.4417   16.4202 H     173  UNL173      0.0521
   1037 H           9.9580   10.7275   15.6347 H     173  UNL173      0.0521
   1038 H           9.1867   11.5944   18.2301 H     173  UNL173      0.2090
   1039 O          11.8984   10.6633   19.6471 O.3   174  UNL174     -0.3982
   1040 C          11.1314    9.4748   19.7072 C.3   174  UNL174      0.0330
   1041 H          10.0677    9.7257   19.6983 H     174  UNL174      0.0521
   1042 H          11.3795    8.9258   20.6188 H     174  UNL174      0.0521
   1043 H          11.3651    8.8567   18.8372 H     174  UNL174      0.0521
   1044 H          11.6698   11.1909   20.4313 H     174  UNL174      0.2090
   1045 O          10.5784    9.8033   22.9391 O.3   175  UNL175     -0.3982
   1046 C           9.4883   10.4308   22.2892 C.3   175  UNL175      0.0330
   1047 H           8.9182   11.0162   23.0149 H     175  UNL175      0.0521
   1048 H           8.8479    9.6712   21.8342 H     175  UNL175      0.0521
   1049 H           9.8727   11.0940   21.5108 H     175  UNL175      0.0521
   1050 H          10.2064    9.2216   23.6238 H     175  UNL175      0.2090
   1051 O          11.6031   10.1984   25.7193 O.3   176  UNL176     -0.3982
   1052 C          10.3373   10.3874   26.3247 C.3   176  UNL176      0.0330
   1053 H          10.4456   10.3664   27.4120 H     176  UNL176      0.0521
   1054 H           9.6557    9.5973   26.0004 H     176  UNL176      0.0521
   1055 H           9.9386   11.3576   26.0191 H     176  UNL176      0.0521
   1056 H          11.9314    9.3301   26.0087 H     176  UNL176      0.2090
   1057 O          10.3621   12.7191   -1.4608 O.3   177  UNL177     -0.3982
   1058 C           9.5860   13.8332   -1.0596 C.3   177  UNL177      0.0330
   1059 H           9.0734   14.2532   -1.9285 H     177  UNL177      0.0521
   1060 H          10.2351   14.5865   -0.6068 H     177  UNL177      0.0521
   1061 H           8.8458   13.5048   -0.3262 H     177  UNL177      0.0521
   1062 H          11.0095   13.0412   -2.1110 H     177  UNL177      0.2090
   1063 O          10.2396   12.1814    1.5457 O.3   178  UNL178     -0.3982
   1064 C           9.9163   13.3355    2.2994 C.3   178  UNL178      0.0330
   1065 H           9.1016   13.1043    2.9901 H     178  UNL178      0.0521
   1066 H           9.6180   14.1410    1.6240 H     178  UNL178      0.0521
   1067 H          10.7958   13.6466    2.8679 H     178  UNL178      0.0521
   1068 H           9.4406   11.9293    1.0523 H     178  UNL178      0.2090
   1069 O          10.3433   13.8510    5.2922 O.3   179  UNL179     -0.3982
   1070 C           9.1277   13.2792    5.7392 C.3   179  UNL179      0.0330
   1071 H           8.5115   14.0507    6.2075 H     179  UNL179      0.0521
   1072 H           9.3407   12.4827    6.4564 H     179  UNL179      0.0521
   1073 H           8.5952   12.8613    4.8816 H     179  UNL179      0.0521
   1074 H          10.7933   14.2132    6.0745 H     179  UNL179      0.2090
   1075 O           9.6134   13.3538    9.7075 O.3   180  UNL180     -0.3982
   1076 C          10.1446   14.6125    9.3362 C.3   180  UNL180      0.0330
   1077 H           9.5915   15.0039    8.4788 H     180  UNL180      0.0521
   1078 H          11.2016   14.5022    9.0819 H     180  UNL180      0.0521
   1079 H          10.0446   15.3025   10.1773 H     180  UNL180      0.0521
   1080 H           9.7162   12.7632    8.9419 H     180  UNL180      0.2090
   1081 O          10.7258   14.5054   13.2316 O.3   181  UNL181     -0.3982
   1082 C           9.3683   14.5054   13.6337 C.3   181  UNL181      0.0330
   1083 H           8.9631   13.4937   13.5519 H     181  UNL181      0.0521
   1084 H           8.7995   15.1895   12.9994 H     181  UNL181      0.0521
   1085 H           9.3055   14.8378   14.6725 H     181  UNL181      0.0521
   1086 H          10.7498   14.2063   12.3066 H     181  UNL181      0.2090
   1087 O          11.7438   14.9461   15.9239 O.3   182  UNL182     -0.3982
   1088 C          11.1664   13.6984   16.2623 C.3   182  UNL182      0.0330
   1089 H          10.0849   13.8133   16.3686 H     182  UNL182      0.0521
   1090 H          11.5990   13.3377   17.1986 H     182  UNL182      0.0521
   1091 H          11.3780   12.9813   15.4657 H     182  UNL182      0.0521
   1092 H          11.5397   15.5613   16.6487 H     182  UNL182      0.2090
   1093 O          10.8768   13.5875   19.6705 O.3   183  UNL183     -0.3982
   1094 C           9.4902   13.7823   19.4612 C.3   183  UNL183      0.0330
   1095 H           9.2671   13.7029   18.3943 H     183  UNL183      0.0521
   1096 H           9.1996   14.7680   19.8327 H     183  UNL183      0.0521
   1097 H           8.9372   13.0129   20.0051 H     183  UNL183      0.0521
   1098 H          11.3410   14.2845   19.1762 H     183  UNL183      0.2090
   1099 O          10.3408   13.5154   22.8087 O.3   184  UNL184     -0.3982
   1100 C           9.1470   14.0680   23.3321 C.3   184  UNL184      0.0330
   1101 H           9.3717   14.6241   24.2457 H     184  UNL184      0.0521
   1102 H           8.4366   13.2659   23.5465 H     184  UNL184      0.0521
   1103 H           8.7151   14.7461   22.5923 H     184  UNL184      0.0521
   1104 H          10.7007   12.9186   23.4868 H     184  UNL184      0.2090
   1105 O          10.4999   13.5021   28.0297 O.3   185  UNL185     -0.3982
   1106 C           9.3756   14.1018   27.4126 C.3   185  UNL185      0.0330
   1107 H           8.5681   13.3696   27.3343 H     185  UNL185      0.0521
   1108 H           9.6531   14.4618   26.4189 H     185  UNL185      0.0521
   1109 H           9.0425   14.9444   28.0231 H     185  UNL185      0.0521
   1110 H          10.7726   12.7584   27.4657 H     185  UNL185      0.2090
   1111 O          12.3895   17.5218    7.2862 O.3   186  UNL186     -0.3982
   1112 C          11.3786   16.8871    6.5248 C.3   186  UNL186      0.0330
   1113 H          10.6246   16.4682    7.1958 H     186  UNL186      0.0521
   1114 H          11.8222   16.0942    5.9177 H     186  UNL186      0.0521
   1115 H          10.9105   17.6257    5.8699 H     186  UNL186      0.0521
   1116 H          12.7864   16.8421    7.8571 H     186  UNL186      0.2090
   1117 O          16.0356   -0.5013    0.3948 O.3   187  UNL187     -0.3982
   1118 C          14.8431   -1.1708    0.0281 C.3   187  UNL187      0.0330
   1119 H          14.4479   -1.7121    0.8913 H     187  UNL187      0.0521
   1120 H          15.0514   -1.8670   -0.7879 H     187  UNL187      0.0521
   1121 H          14.1090   -0.4329   -0.3038 H     187  UNL187      0.0521
   1122 H          16.6674   -1.1813    0.6846 H     187  UNL187      0.2090
   1123 O          15.4537    0.1085    3.9466 O.3   188  UNL188     -0.3982
   1124 C          14.9811   -1.2034    3.7020 C.3   188  UNL188      0.0330
   1125 H          14.5725   -1.6225    4.6249 H     188  UNL188      0.0521
   1126 H          15.8026   -1.8258    3.3390 H     188  UNL188      0.0521
   1127 H          14.1954   -1.1625    2.9439 H     188  UNL188      0.0521
   1128 H          16.1492    0.0402    4.6228 H     188  UNL188      0.2090
   1129 O          12.9511   -0.2600    7.5119 O.3   189  UNL189     -0.3982
   1130 C          12.6038    0.8024    6.6429 C.3   189  UNL189      0.0330
   1131 H          11.5314    0.9993    6.7170 H     189  UNL189      0.0521
   1132 H          12.8658    0.5350    5.6163 H     189  UNL189      0.0521
   1133 H          13.1575    1.6972    6.9366 H     189  UNL189      0.0521
   1134 H          12.4447   -1.0395    7.2267 H     189  UNL189      0.2090
   1135 O          15.6480   -1.3068    9.3722 O.3   190  UNL190     -0.3982
   1136 C          16.9176   -0.9655    9.8976 C.3   190  UNL190      0.0330
   1137 H          17.5484   -1.8571    9.9367 H     190  UNL190      0.0521
   1138 H          16.7976   -0.5468   10.8998 H     190  UNL190      0.0521
   1139 H          17.3828   -0.2209    9.2474 H     190  UNL190      0.0521
   1140 H          15.2599   -1.9684    9.9698 H     190  UNL190      0.2090
   1141 O          14.7939    0.1244   12.7669 O.3   191  UNL191     -0.3982
   1142 C          14.7032   -1.2874   12.7111 C.3   191  UNL191      0.0330
   1143 H          13.7995   -1.5743   12.1677 H     191  UNL191      0.0521
   1144 H          14.6750   -1.6919   13.7258 H     191  UNL191      0.0521
   1145 H          15.5794   -1.6794   12.1892 H     191  UNL191      0.0521
   1146 H          14.0035    0.4431   13.2351 H     191  UNL191      0.2090
   1147 O          14.2678   -1.7894   16.3446 O.3   192  UNL192     -0.3982
   1148 C          13.0416   -1.0853   16.4176 C.3   192  UNL192      0.0330
   1149 H          12.6246   -0.9730   15.4137 H     192  UNL192      0.0521
   1150 H          13.2106   -0.1031   16.8656 H     192  UNL192      0.0521
   1151 H          12.3433   -1.6513   17.0386 H     192  UNL192      0.0521
   1152 H          14.8666   -1.2633   15.7877 H     192  UNL192      0.2090
   1153 O          14.4030   -1.0209   18.9928 O.3   193  UNL193     -0.3982
   1154 C          14.7986   -0.0691   19.9633 C.3   193  UNL193      0.0330
   1155 H          15.0837   -0.5834   20.8845 H     193  UNL193      0.0521
   1156 H          13.9722    0.6188   20.1583 H     193  UNL193      0.0521
   1157 H          15.6548    0.4923   19.5821 H     193  UNL193      0.0521
   1158 H          13.6422   -1.5031   19.3590 H     193  UNL193      0.2090
   1159 O          14.1462   -0.8305   23.1542 O.3   194  UNL194     -0.3982
   1160 C          12.8375   -1.0606   22.6654 C.3   194  UNL194      0.0330
   1161 H          12.4032   -1.9235   23.1764 H     194  UNL194      0.0521
   1162 H          12.8766   -1.2429   21.5887 H     194  UNL194      0.0521
   1163 H          12.2248   -0.1775   22.8612 H     194  UNL194      0.0521
   1164 H          14.6661   -1.6305   22.9663 H     194  UNL194      0.2090
   1165 O          16.2533   -0.7033   27.9454 O.3   195  UNL195     -0.3982
   1166 C          15.0447   -1.1013   27.3246 C.3   195  UNL195      0.0330
   1167 H          14.6152   -1.9459   27.8691 H     195  UNL195      0.0521
   1168 H          15.2426   -1.3849   26.2881 H     195  UNL195      0.0521
   1169 H          14.3431   -0.2640   27.3434 H     195  UNL195      0.0521
   1170 H          16.8555   -1.4661   27.9137 H     195  UNL195      0.2090
   1171 O          13.0190    1.6306   -1.8492 O.3   196  UNL196     -0.3982
   1172 C          14.2131    2.1734   -1.3163 C.3   196  UNL196      0.0330
   1173 H          15.0312    2.0223   -2.0249 H     196  UNL196      0.0521
   1174 H          14.4445    1.6847   -0.3667 H     196  UNL196      0.0521
   1175 H          14.0727    3.2437   -1.1480 H     196  UNL196      0.0521
   1176 H          13.1739    0.6807   -1.9878 H     196  UNL196      0.2090
   1177 O          17.3255    3.8934    1.2246 O.3   197  UNL197     -0.3982
   1178 C          16.3959    2.8257    1.2070 C.3   197  UNL197      0.0330
   1179 H          16.7280    2.0637    0.4975 H     197  UNL197      0.0521
   1180 H          15.4118    3.2030    0.9187 H     197  UNL197      0.0521
   1181 H          16.3376    2.3888    2.2067 H     197  UNL197      0.0521
   1182 H          17.3556    4.2608    0.3248 H     197  UNL197      0.2090
   1183 O          14.7844    3.4877    4.6070 O.3   198  UNL198     -0.3982
   1184 C          13.4437    3.0484    4.4889 C.3   198  UNL198      0.0330
   1185 H          13.4271    1.9721    4.3006 H     198  UNL198      0.0521
   1186 H          12.9561    3.5802    3.6683 H     198  UNL198      0.0521
   1187 H          12.9167    3.2610    5.4220 H     198  UNL198      0.0521
   1188 H          15.2264    3.2859    3.7647 H     198  UNL198      0.2090
   1189 O          16.2216    2.5897    6.9968 O.3   199  UNL199     -0.3982
   1190 C          16.1162    1.2105    7.2988 C.3   199  UNL199      0.0330
   1191 H          17.1006    0.7427    7.2186 H     199  UNL199      0.0521
   1192 H          15.4183    0.7368    6.6041 H     199  UNL199      0.0521
   1193 H          15.7437    1.0977    8.3196 H     199  UNL199      0.0521
   1194 H          16.5542    2.6580    6.0856 H     199  UNL199      0.2090
   1195 O          15.5544    3.1622   12.5605 O.3   200  UNL200     -0.3982
   1196 C          14.2745    3.0245   13.1500 C.3   200  UNL200      0.0330
   1197 H          14.3603    2.4600   14.0818 H     200  UNL200      0.0521
   1198 H          13.6073    2.5057   12.4573 H     200  UNL200      0.0521
   1199 H          13.8731    4.0178   13.3639 H     200  UNL200      0.0521
   1200 H          15.8848    2.2652   12.3821 H     200  UNL200      0.2090
   1201 O          16.0825    1.4128   15.6682 O.3   201  UNL201     -0.3982
   1202 C          15.8423    1.4122   17.0635 C.3   201  UNL201      0.0330
   1203 H          16.0385    0.4159   17.4675 H     201  UNL201      0.0521
   1204 H          14.8051    1.6971   17.2557 H     201  UNL201      0.0521
   1205 H          16.5103    2.1340   17.5393 H     201  UNL201      0.0521
   1206 H          15.4758    0.7634   15.2736 H     201  UNL201      0.2090
   1207 O          13.6390    3.2750   19.3272 O.3   202  UNL202     -0.3982
   1208 C          14.9095    3.2502   19.9516 C.3   202  UNL202      0.0330
   1209 H          15.5804    2.5964   19.3889 H     202  UNL202      0.0521
   1210 H          14.8054    2.8876   20.9771 H     202  UNL202      0.0521
   1211 H          15.3184    4.2633   19.9654 H     202  UNL202      0.0521
   1212 H          13.3017    2.3630   19.3298 H     202  UNL202      0.2090
   1213 O          15.4607    1.5804   24.4359 O.3   203  UNL203     -0.3982
   1214 C          16.7157    1.1350   23.9551 C.3   203  UNL203      0.0330
   1215 H          16.5706    0.2729   23.2993 H     203  UNL203      0.0521
   1216 H          17.3537    0.8612   24.7988 H     203  UNL203      0.0521
   1217 H          17.1875    1.9434   23.3916 H     203  UNL203      0.0521
   1218 H          15.0663    0.8425   24.9314 H     203  UNL203      0.2090
   1219 O          13.7504    4.1203   27.7762 O.3   204  UNL204     -0.3982
   1220 C          14.6960    3.2010   27.2612 C.3   204  UNL204      0.0330
   1221 H          14.1947    2.4979   26.5915 H     204  UNL204      0.0521
   1222 H          15.1678    2.6617   28.0862 H     204  UNL204      0.0521
   1223 H          15.4588    3.7504   26.7044 H     204  UNL204      0.0521
   1224 H          13.0868    3.6040   28.2648 H     204  UNL204      0.2090
   1225 O          15.5630    6.3223   -2.0673 O.3   205  UNL205     -0.3982
   1226 C          14.6927    6.7372   -1.0305 C.3   205  UNL205      0.0330
   1227 H          14.3168    7.7399   -1.2485 H     205  UNL205      0.0521
   1228 H          15.2313    6.7372   -0.0797 H     205  UNL205      0.0521
   1229 H          13.8532    6.0406   -0.9712 H     205  UNL205      0.0521
   1230 H          16.2974    6.9590   -2.0957 H     205  UNL205      0.2090
   1231 O          15.9273    6.7139    3.8892 O.3   206  UNL206     -0.3982
   1232 C          14.6554    6.4390    3.3313 C.3   206  UNL206      0.0330
   1233 H          14.0940    5.7873    4.0053 H     206  UNL206      0.0521
   1234 H          14.7797    5.9555    2.3593 H     206  UNL206      0.0521
   1235 H          14.1137    7.3789    3.2017 H     206  UNL206      0.0521
   1236 H          16.3842    5.8617    3.9924 H     206  UNL206      0.2090
   1237 O          14.3750    6.2925    6.5190 O.3   207  UNL207     -0.3982
   1238 C          13.0316    6.7184    6.6540 C.3   207  UNL207      0.0330
   1239 H          12.6565    7.0571    5.6850 H     207  UNL207      0.0521
   1240 H          12.9777    7.5315    7.3820 H     207  UNL207      0.0521
   1241 H          12.4261    5.8788    7.0034 H     207  UNL207      0.0521
   1242 H          14.8875    7.0580    6.2079 H     207  UNL207      0.2090
   1243 O          15.4723    4.8492    9.1653 O.3   208  UNL208     -0.3982
   1244 C          14.0615    4.9296    9.2535 C.3   208  UNL208      0.0330
   1245 H          13.6106    4.2501    8.5261 H     208  UNL208      0.0521
   1246 H          13.7412    5.9557    9.0568 H     208  UNL208      0.0521
   1247 H          13.7514    4.6402   10.2603 H     208  UNL208      0.0521
   1248 H          15.7174    5.1116    8.2616 H     208  UNL208      0.2090
   1249 O          16.7774    6.6862   12.9427 O.3   209  UNL209     -0.3982
   1250 C          15.4886    6.5794   13.5188 C.3   209  UNL209      0.0330
   1251 H          14.7716    7.1438   12.9174 H     209  UNL209      0.0521
   1252 H          15.5112    6.9695   14.5393 H     209  UNL209      0.0521
   1253 H          15.1948    5.5273   13.5398 H     209  UNL209      0.0521
   1254 H          17.0108    7.6301   12.9377 H     209  UNL209      0.2090
   1255 O          15.2458    4.6676   15.8635 O.3   210  UNL210     -0.3982
   1256 C          13.8654    4.7205   16.1733 C.3   210  UNL210      0.0330
   1257 H          13.6968    4.2923   17.1646 H     210  UNL210      0.0521
   1258 H          13.3009    4.1620   15.4227 H     210  UNL210      0.0521
   1259 H          13.5400    5.7634   16.1693 H     210  UNL210      0.0521
   1260 H          15.5054    3.7305   15.8745 H     210  UNL210      0.2090
   1261 O          15.8899    6.9546   20.4582 O.3   211  UNL211     -0.3982
   1262 C          14.8932    7.1080   19.4645 C.3   211  UNL211      0.0330
   1263 H          14.3134    6.1852   19.3831 H     211  UNL211      0.0521
   1264 H          15.3651    7.3401   18.5067 H     211  UNL211      0.0521
   1265 H          14.2303    7.9282   19.7498 H     211  UNL211      0.0521
   1266 H          16.4624    6.2203   20.1777 H     211  UNL211      0.2090
   1267 O          14.1655    4.8820   24.0310 O.3   212  UNL212     -0.3982
   1268 C          15.1124    4.7708   22.9843 C.3   212  UNL212      0.0330
   1269 H          15.4860    3.7449   22.9372 H     212  UNL212      0.0521
   1270 H          15.9387    5.4629   23.1644 H     212  UNL212      0.0521
   1271 H          14.6278    5.0237   22.0384 H     212  UNL212      0.0521
   1272 H          14.6241    4.6519   24.8569 H     212  UNL212      0.2090
   1273 O          15.2001    7.0469   27.8749 O.3   213  UNL213     -0.3982
   1274 C          14.9133    6.8629   26.5007 C.3   213  UNL213      0.0330
   1275 H          13.9997    6.2728   26.3941 H     213  UNL213      0.0521
   1276 H          15.7492    6.3502   26.0187 H     213  UNL213      0.0521
   1277 H          14.7699    7.8401   26.0338 H     213  UNL213      0.0521
   1278 H          15.3222    6.1633   28.2621 H     213  UNL213      0.2090
   1279 O          17.3054   10.5972   -1.0756 O.3   214  UNL214     -0.3982
   1280 C          16.0299    9.9848   -1.1260 C.3   214  UNL214      0.0330
   1281 H          15.7011    9.7419   -0.1125 H     214  UNL214      0.0521
   1282 H          16.0846    9.0762   -1.7304 H     214  UNL214      0.0521
   1283 H          15.3198   10.6798   -1.5803 H     214  UNL214      0.0521
   1284 H          17.9137    9.9573   -0.6682 H     214  UNL214      0.2090
   1285 O          12.6145    9.6509    2.3524 O.3   215  UNL215     -0.3982
   1286 C          13.5125   10.7149    2.0955 C.3   215  UNL215      0.0330
   1287 H          14.4722   10.3109    1.7636 H     215  UNL215      0.0521
   1288 H          13.6486   11.3055    3.0047 H     215  UNL215      0.0521
   1289 H          13.0958   11.3498    1.3102 H     215  UNL215      0.0521
   1290 H          13.0109    9.1052    3.0528 H     215  UNL215      0.2090
   1291 O          14.8082   10.1342    4.9506 O.3   216  UNL216     -0.3982
   1292 C          15.9980   10.6418    4.3751 C.3   216  UNL216      0.0330
   1293 H          16.4275    9.8935    3.7044 H     216  UNL216      0.0521
   1294 H          16.7099   10.8890    5.1664 H     216  UNL216      0.0521
   1295 H          15.7607   11.5441    3.8066 H     216  UNL216      0.0521
   1296 H          15.0501    9.3346    5.4483 H     216  UNL216      0.2090
   1297 O          16.5976    7.6039    9.7808 O.3   217  UNL217     -0.3982
   1298 C          15.2563    7.9744   10.0416 C.3   217  UNL217      0.0330
   1299 H          14.6896    7.9764    9.1072 H     217  UNL217      0.0521
   1300 H          15.2335    8.9678   10.4961 H     217  UNL217      0.0521
   1301 H          14.8154    7.2505   10.7310 H     217  UNL217      0.0521
   1302 H          16.9621    8.2641    9.1669 H     217  UNL217      0.2090
   1303 O          13.8440   10.1088   12.6762 O.3   218  UNL218     -0.3982
   1304 C          15.1265    9.8450   13.2149 C.3   218  UNL218      0.0330
   1305 H          15.0224    9.4405   14.2248 H     218  UNL218      0.0521
   1306 H          15.7095   10.7689   13.2392 H     218  UNL218      0.0521
   1307 H          15.6339    9.1131   12.5821 H     218  UNL218      0.0521
   1308 H          13.4182   10.7610   13.2584 H     218  UNL218      0.2090
   1309 O          12.9601    9.5880   15.8329 O.3   219  UNL219     -0.3982
   1310 C          13.3107   10.7557   16.5528 C.3   219  UNL219      0.0330
   1311 H          14.1298   10.5292   17.2398 H     219  UNL219      0.0521
   1312 H          12.4424   11.1155   17.1102 H     219  UNL219      0.0521
   1313 H          13.6322   11.5251   15.8470 H     219  UNL219      0.0521
   1314 H          12.6793    8.9238   16.4852 H     219  UNL219      0.2090
   1315 O          16.0474    9.9900   19.0949 O.3   220  UNL220     -0.3982
   1316 C          15.0681   10.6303   19.8919 C.3   220  UNL220      0.0330
   1317 H          14.4758    9.8774   20.4179 H     220  UNL220      0.0521
   1318 H          14.4210   11.2395   19.2562 H     220  UNL220      0.0521
   1319 H          15.5677   11.2724   20.6211 H     220  UNL220      0.0521
   1320 H          15.5745    9.4277   18.4580 H     220  UNL220      0.2090
   1321 O          12.9834    8.1503   23.8606 O.3   221  UNL221     -0.3982
   1322 C          13.9501    8.3910   22.8546 C.3   221  UNL221      0.0330
   1323 H          13.9537    7.5598   22.1451 H     221  UNL221      0.0521
   1324 H          14.9362    8.4965   23.3135 H     221  UNL221      0.0521
   1325 H          13.6943    9.3143   22.3296 H     221  UNL221      0.0521
   1326 H          13.2367    7.3254   24.3088 H     221  UNL221      0.2090
   1327 O          15.9413   10.3507   28.2232 O.3   222  UNL222     -0.3982
   1328 C          14.8879   10.3335   27.2773 C.3   222  UNL222      0.0330
   1329 H          14.2794    9.4378   27.4246 H     222  UNL222      0.0521
   1330 H          15.3041   10.3422   26.2670 H     222  UNL222      0.0521
   1331 H          14.2670   11.2209   27.4209 H     222  UNL222      0.0521
   1332 H          16.4747    9.5520   28.0713 H     222  UNL222      0.2090
   1333 O          16.1649   14.6094   -0.3115 O.3   223  UNL223     -0.3982
   1334 C          15.3403   13.7814   -1.1109 C.3   223  UNL223      0.0330
   1335 H          14.6585   13.2171   -0.4699 H     223  UNL223      0.0521
   1336 H          15.9634   13.0962   -1.6907 H     223  UNL223      0.0521
   1337 H          14.7610   14.4088   -1.7923 H     223  UNL223      0.0521
   1338 H          16.6664   14.0252    0.2824 H     223  UNL223      0.2090
   1339 O          15.7910   14.5456    2.7290 O.3   224  UNL224     -0.3982
   1340 C          14.6788   13.7974    2.2735 C.3   224  UNL224      0.0330
   1341 H          14.0729   13.4865    3.1282 H     224  UNL224      0.0521
   1342 H          15.0290   12.9206    1.7234 H     224  UNL224      0.0521
   1343 H          14.0765   14.4237    1.6112 H     224  UNL224      0.0521
   1344 H          16.3063   13.9643    3.3139 H     224  UNL224      0.2090
   1345 O          13.4388   14.1226    5.7290 O.3   225  UNL225     -0.3982
   1346 C          13.4516   13.2993    6.8808 C.3   225  UNL225      0.0330
   1347 H          14.2292   13.6435    7.5672 H     225  UNL225      0.0521
   1348 H          13.6417   12.2640    6.5875 H     225  UNL225      0.0521
   1349 H          12.4789   13.3632    7.3740 H     225  UNL225      0.0521
   1350 H          14.3143   14.0454    5.3129 H     225  UNL225      0.2090
   1351 O          16.0313   11.5638   10.1967 O.3   226  UNL226     -0.3982
   1352 C          14.7455   11.6488    9.6101 C.3   226  UNL226      0.0330
   1353 H          14.3275   12.6426    9.7887 H     226  UNL226      0.0521
   1354 H          14.0952   10.8851   10.0433 H     226  UNL226      0.0521
   1355 H          14.8341   11.4812    8.5341 H     226  UNL226      0.0521
   1356 H          15.9207   11.7166   11.1506 H     226  UNL226      0.2090
   1357 O          13.7966   14.5128   13.5447 O.3   227  UNL227     -0.3982
   1358 C          14.7246   13.6384   12.9294 C.3   227  UNL227      0.0330
   1359 H          14.8405   12.7398   13.5404 H     227  UNL227      0.0521
   1360 H          15.6869   14.1447   12.8208 H     227  UNL227      0.0521
   1361 H          14.3490   13.3592   11.9422 H     227  UNL227      0.0521
   1362 H          14.1568   14.7431   14.4181 H     227  UNL227      0.2090
   1363 O          16.3286   12.7315   16.8677 O.3   228  UNL228     -0.3982
   1364 C          16.2879   14.0122   16.2656 C.3   228  UNL228      0.0330
   1365 H          15.2789   14.4235   16.3499 H     228  UNL228      0.0521
   1366 H          16.5729   13.9306   15.2139 H     228  UNL228      0.0521
   1367 H          16.9914   14.6699   16.7815 H     228  UNL228      0.0521
   1368 H          15.6948   12.1705   16.3891 H     228  UNL228      0.2090
   1369 O          15.3655   13.8403   20.4591 O.3   229  UNL229     -0.3982
   1370 C          14.1995   14.2194   19.7512 C.3   229  UNL229      0.0330
   1371 H          13.5606   14.8260   20.3978 H     229  UNL229      0.0521
   1372 H          13.6626   13.3248   19.4262 H     229  UNL229      0.0521
   1373 H          14.4899   14.8054   18.8761 H     229  UNL229      0.0521
   1374 H          15.0763   13.3221   21.2294 H     229  UNL229      0.2090
   1375 O          14.6188   12.0069   23.4631 O.3   230  UNL230     -0.3982
   1376 C          13.2613   12.0069   23.0609 C.3   230  UNL230      0.0330
   1377 H          12.6810   11.3706   23.7337 H     230  UNL230      0.0521
   1378 H          13.1842   11.6372   22.0355 H     230  UNL230      0.0521
   1379 H          12.8770   13.0286   23.1074 H     230  UNL230      0.0521
   1380 H          14.9321   11.0878   23.4115 H     230  UNL230      0.2090
   1381 O          14.7211   13.9838   28.0766 O.3   231  UNL231     -0.3982
   1382 C          14.2400   14.0091   26.7453 C.3   231  UNL231      0.0330
   1383 H          13.4275   13.2864   26.6367 H     231  UNL231      0.0521
   1384 H          15.0537   13.7647   26.0582 H     231  UNL231      0.0521
   1385 H          13.8658   15.0110   26.5218 H     231  UNL231      0.0521
   1386 H          15.0462   13.0831   28.2458 H     231  UNL231      0.2090
   1387 O          12.7173   17.7954    2.9389 O.3   232  UNL232     -0.3982
   1388 C          14.0723   18.0577    3.2545 C.3   232  UNL232      0.0330
   1389 H          14.5591   18.5396    2.4030 H     232  UNL232      0.0521
   1390 H          14.5794   17.1201    3.4950 H     232  UNL232      0.0521
   1391 H          14.1132   18.7237    4.1196 H     232  UNL232      0.0521
   1392 H          12.7131   17.2025    2.1682 H     232  UNL232      0.2090
   1393 O          15.6057   15.4423   10.2594 O.3   233  UNL233     -0.3982
   1394 C          14.2482   15.4423    9.8573 C.3   233  UNL233      0.0330
   1395 H          13.7366   14.5829   10.2979 H     233  UNL233      0.0521
   1396 H          14.1902   15.3947    8.7671 H     233  UNL233      0.0521
   1397 H          13.7745   16.3632   10.2053 H     233  UNL233      0.0521
   1398 H          15.9992   14.6137    9.9366 H     233  UNL233      0.2090
   1399 O          16.7992   15.6813   24.1851 O.3   234  UNL234     -0.3982
   1400 C          15.7248   15.0888   23.4786 C.3   234  UNL234      0.0330
   1401 H          14.9033   14.8824   24.1690 H     234  UNL234      0.0521
   1402 H          16.0630   14.1613   23.0103 H     234  UNL234      0.0521
   1403 H          15.3831   15.7811   22.7056 H     234  UNL234      0.0521
   1404 H          17.0809   15.0441   24.8635 H     234  UNL234      0.2090
   1405 O          20.2171   -1.2289   -1.2781 O.3   235  UNL235     -0.3982
   1406 C          18.8159   -1.2289   -1.0749 C.3   235  UNL235      0.0330
   1407 H          18.3223   -1.6907   -1.9336 H     235  UNL235      0.0521
   1408 H          18.4652   -0.2017   -0.9486 H     235  UNL235      0.0521
   1409 H          18.5876   -1.8030   -0.1739 H     235  UNL235      0.0521
   1410 H          20.3889   -0.7124   -2.0838 H     235  UNL235      0.2090
   1411 O          21.5561   -0.9714    2.9898 O.3   236  UNL236     -0.3982
   1412 C          20.1971   -1.0017    2.5939 C.3   236  UNL236      0.0330
   1413 H          19.6393   -1.6711    3.2536 H     236  UNL236      0.0521
   1414 H          20.1255   -1.3486    1.5602 H     236  UNL236      0.0521
   1415 H          19.7831    0.0067    2.6671 H     236  UNL236      0.0521
   1416 H          21.8959   -1.8794    2.9145 H     236  UNL236      0.2090
   1417 O          21.6057   -1.0364    6.4305 O.3   237  UNL237     -0.3982
   1418 C          20.2045   -1.2396    6.4305 C.3   237  UNL237      0.0330
   1419 H          19.6982   -0.2933    6.6365 H     237  UNL237      0.0521
   1420 H          19.9427   -1.9785    7.1917 H     237  UNL237      0.0521
   1421 H          19.8989   -1.6076    5.4482 H     237  UNL237      0.0521
   1422 H          21.8471   -0.7102    7.3141 H     237  UNL237      0.2090
   1423 O          21.3197    0.4510   10.3185 O.3   238  UNL238     -0.3982
   1424 C          20.0289    0.0748    9.8749 C.3   238  UNL238      0.0330
   1425 H          19.3131    0.1919   10.6924 H     238  UNL238      0.0521
   1426 H          20.0470   -0.9647    9.5384 H     238  UNL238      0.0521
   1427 H          19.7371    0.7198    9.0428 H     238  UNL238      0.0521
   1428 H          21.5512   -0.1383   11.0565 H     238  UNL238      0.2090
   1429 O          20.1979   -0.9238   13.1736 O.3   239  UNL239     -0.3982
   1430 C          18.7915   -1.0335   13.2947 C.3   239  UNL239      0.0330
   1431 H          18.5444   -1.9048   13.9063 H     239  UNL239      0.0521
   1432 H          18.3462   -1.1339   12.3019 H     239  UNL239      0.0521
   1433 H          18.4049   -0.1320   13.7756 H     239  UNL239      0.0521
   1434 H          20.5120   -1.7375   12.7438 H     239  UNL239      0.2090
   1435 O          21.2597   -0.9095   16.4410 O.3   240  UNL240     -0.3982
   1436 C          19.9803   -0.3325   16.6271 C.3   240  UNL240      0.0330
   1437 H          19.5372   -0.1049   15.6545 H     240  UNL240      0.0521
   1438 H          20.0743    0.5809   17.2194 H     240  UNL240      0.0521
   1439 H          19.3434   -1.0441   17.1577 H     240  UNL240      0.0521
   1440 H          21.8021   -0.2554   15.9682 H     240  UNL240      0.2090
   1441 O          19.8745   -1.3986   19.6811 O.3   241  UNL241     -0.3982
   1442 C          20.8568   -0.3810   19.7444 C.3   241  UNL241      0.0330
   1443 H          21.1895   -0.2582   20.7781 H     241  UNL241      0.0521
   1444 H          20.4362    0.5563   19.3719 H     241  UNL241      0.0521
   1445 H          21.7072   -0.6689   19.1219 H     241  UNL241      0.0521
   1446 H          19.1329   -1.1151   20.2426 H     241  UNL241      0.2090
   1447 O          21.5518   -0.9057   23.6326 O.3   242  UNL242     -0.3982
   1448 C          20.1943   -1.0200   23.2471 C.3   242  UNL242      0.0330
   1449 H          19.6495   -1.6002   23.9959 H     242  UNL242      0.0521
   1450 H          20.1314   -1.5115   22.2732 H     242  UNL242      0.0521
   1451 H          19.7596   -0.0201   23.1768 H     242  UNL242      0.0521
   1452 H          21.9104   -1.8080   23.6865 H     242  UNL242      0.2090
   1453 O          21.4075   -0.1172   27.2881 O.3   243  UNL243     -0.3982
   1454 C          20.3879   -1.0459   27.6081 C.3   243  UNL243      0.0330
   1455 H          20.0135   -1.5078   26.6911 H     243  UNL243      0.0521
   1456 H          19.5756   -0.5318   28.1276 H     243  UNL243      0.0521
   1457 H          20.8027   -1.8186   28.2596 H     243  UNL243      0.0521
   1458 H          21.0098    0.5557   26.7097 H     243  UNL243      0.2090
   1459 O          21.5191    2.4420   -1.7014 O.3   244  UNL244     -0.3982
   1460 C          20.9054    1.8782   -0.5569 C.3   244  UNL244      0.0330
   1461 H          19.9496    1.4294   -0.8386 H     244  UNL244      0.0521
   1462 H          20.7474    2.6566    0.1936 H     244  UNL244      0.0521
   1463 H          21.5607    1.1066   -0.1460 H     244  UNL244      0.0521
   1464 H          20.9149    3.1226   -2.0436 H     244  UNL244      0.2090
   1465 O          21.5798    3.7953    3.1248 O.3   245  UNL245     -0.3982
   1466 C          20.2836    3.2314    3.0450 C.3   245  UNL245      0.0330
   1467 H          19.7945    3.5681    2.1275 H     245  UNL245      0.0521
   1468 H          19.6982    3.5367    3.9157 H     245  UNL245      0.0521
   1469 H          20.3701    2.1424    3.0305 H     245  UNL245      0.0521
   1470 H          21.4708    4.7615    3.1358 H     245  UNL245      0.2090
   1471 O          21.4483    3.7347    6.1731 O.3   246  UNL246     -0.3982
   1472 C          20.2176    3.3594    6.7638 C.3   246  UNL246      0.0330
   1473 H          20.3952    2.5936    7.5230 H     246  UNL246      0.0521
   1474 H          19.5449    2.9747    5.9934 H     246  UNL246      0.0521
   1475 H          19.7665    4.2368    7.2332 H     246  UNL246      0.0521
   1476 H          21.8245    2.9363    5.7650 H     246  UNL246      0.2090
   1477 O          19.3588    3.0502   10.1432 O.3   247  UNL247     -0.3982
   1478 C          17.9722    3.2783    9.9710 C.3   247  UNL247      0.0330
   1479 H          17.6518    2.8714    9.0087 H     247  UNL247      0.0521
   1480 H          17.7711    4.3516   10.0100 H     247  UNL247      0.0521
   1481 H          17.4273    2.7783   10.7751 H     247  UNL247      0.0521
   1482 H          19.8158    3.5055    9.4156 H     247  UNL247      0.2090
   1483 O          20.8803    2.0874   12.6465 O.3   248  UNL248     -0.3982
   1484 C          20.7042    3.4663   12.9149 C.3   248  UNL248      0.0330
   1485 H          21.4988    3.8133   13.5802 H     248  UNL248      0.0521
   1486 H          19.7287    3.6260   13.3807 H     248  UNL248      0.0521
   1487 H          20.7515    4.0203   11.9745 H     248  UNL248      0.0521
   1488 H          20.8335    1.6221   13.4990 H     248  UNL248      0.2090
   1489 O          20.8101    3.3834   16.3802 O.3   249  UNL249     -0.3982
   1490 C          19.3943    3.3834   16.3802 C.3   249  UNL249      0.0330
   1491 H          19.0290    3.8951   17.2742 H     249  UNL249      0.0521
   1492 H          19.0291    2.3537   16.3619 H     249  UNL249      0.0521
   1493 H          19.0390    3.9096   15.4911 H     249  UNL249      0.0521
   1494 H          21.0958    2.9101   17.1801 H     249  UNL249      0.2090
   1495 O          21.5756    2.9982   19.7855 O.3   250  UNL250     -0.3982
   1496 C          20.2741    3.5516   19.7207 C.3   250  UNL250      0.0330
   1497 H          19.9326    3.8010   20.7284 H     250  UNL250      0.0521
   1498 H          19.5932    2.8306   19.2617 H     250  UNL250      0.0521
   1499 H          20.3038    4.4592   19.1133 H     250  UNL250      0.0521
   1500 H          21.5177    2.1949   20.3304 H     250  UNL250      0.2090
   1501 O          21.2171    3.3135   23.5155 O.3   251  UNL251     -0.3982
   1502 C          19.9640    2.6925   23.2949 C.3   251  UNL251      0.0330
   1503 H          19.7795    1.9535   24.0785 H     251  UNL251      0.0521
   1504 H          19.9638    2.2084   22.3153 H     251  UNL251      0.0521
   1505 H          19.1806    3.4535   23.3229 H     251  UNL251      0.0521
   1506 H          21.8919    2.6140   23.4850 H     251  UNL251      0.2090
   1507 O          21.4100    3.2165   27.5521 O.3   252  UNL252     -0.3982
   1508 C          19.9943    3.2165   27.5521 C.3   252  UNL252      0.0330
   1509 H          19.6290    2.2312   27.8524 H     252  UNL252      0.0521
   1510 H          19.6291    3.4631   26.5522 H     252  UNL252      0.0521
   1511 H          19.6390    3.9665   28.2626 H     252  UNL252      0.0521
   1512 H          21.6958    2.5417   26.9129 H     252  UNL252      0.2090
   1513 O          21.5604    6.8015   -1.4032 O.3   253  UNL253     -0.3982
   1514 C          20.2886    6.6067   -0.8125 C.3   253  UNL253      0.0330
   1515 H          19.5850    6.2506   -1.5691 H     253  UNL253      0.0521
   1516 H          19.9358    7.5489   -0.3861 H     253  UNL253      0.0521
   1517 H          20.3758    5.8604   -0.0193 H     253  UNL253      0.0521
   1518 H          21.4515    7.4682   -2.1026 H     253  UNL253      0.2090
   1519 O          20.3850    6.9696    2.7869 O.3   254  UNL254     -0.3982
   1520 C          18.9792    6.9845    2.9539 C.3   254  UNL254      0.0330
   1521 H          18.7013    7.7887    3.6397 H     254  UNL254      0.0521
   1522 H          18.6484    6.0218    3.3513 H     254  UNL254      0.0521
   1523 H          18.5078    7.1570    1.9835 H     254  UNL254      0.0521
   1524 H          20.7753    6.8147    3.6639 H     254  UNL254      0.2090
   1525 O          20.3574    7.2015    6.3038 O.3   255  UNL255     -0.3982
   1526 C          18.9705    7.0085    6.5135 C.3   255  UNL255      0.0330
   1527 H          18.7113    7.3006    7.5342 H     255  UNL255      0.0521
   1528 H          18.7189    5.9581    6.3486 H     255  UNL255      0.0521
   1529 H          18.4146    7.6293    5.8069 H     255  UNL255      0.0521
   1530 H          20.8243    6.6384    6.9444 H     255  UNL255      0.2090
   1531 O          21.4712    6.3387   10.4066 O.3   256  UNL256     -0.3982
   1532 C          20.2620    6.2903    9.6717 C.3   256  UNL256      0.0330
   1533 H          19.4356    6.0463   10.3439 H     256  UNL256      0.0521
   1534 H          20.3420    5.5350    8.8862 H     256  UNL256      0.0521
   1535 H          20.0829    7.2677    9.2175 H     256  UNL256      0.0521
   1536 H          21.6033    5.4582   10.7976 H     256  UNL256      0.2090
   1537 O          21.2594    7.4457   12.9071 O.3   257  UNL257     -0.3982
   1538 C          20.0772    6.6975   13.1242 C.3   257  UNL257      0.0330
   1539 H          19.2154    7.3696   13.1296 H     257  UNL257      0.0521
   1540 H          20.1483    6.1712   14.0791 H     257  UNL257      0.0521
   1541 H          19.9639    5.9699   12.3172 H     257  UNL257      0.0521
   1542 H          21.3329    8.0824   13.6384 H     257  UNL257      0.2090
   1543 O          17.7394    7.6185   15.8770 O.3   258  UNL258     -0.3982
   1544 C          17.8557    6.5737   16.8254 C.3   258  UNL258      0.0330
   1545 H          18.8811    6.5341   17.2013 H     258  UNL258      0.0521
   1546 H          17.5915    5.6231   16.3557 H     258  UNL258      0.0521
   1547 H          17.1729    6.7696   17.6554 H     258  UNL258      0.0521
   1548 H          18.3565    7.4172   15.1530 H     258  UNL258      0.2090
   1549 O          20.2856    7.5022   19.2589 O.3   259  UNL259     -0.3982
   1550 C          19.1874    6.9472   19.9592 C.3   259  UNL259      0.0330
   1551 H          19.4679    6.7752   21.0013 H     259  UNL259      0.0521
   1552 H          18.8933    6.0053   19.4896 H     259  UNL259      0.0521
   1553 H          18.3503    7.6481   19.9203 H     259  UNL259      0.0521
   1554 H          21.0124    6.8583   19.3107 H     259  UNL259      0.2090
   1555 O          21.3499    7.4886   23.5391 O.3   260  UNL260     -0.3982
   1556 C          20.0492    7.1376   23.9741 C.3   260  UNL260      0.0330
   1557 H          19.9367    6.0508   23.9499 H     260  UNL260      0.0521
   1558 H          19.3074    7.6059   23.3227 H     260  UNL260      0.0521
   1559 H          19.9086    7.4935   24.9975 H     260  UNL260      0.0521
   1560 H          21.4452    7.1600   22.6289 H     260  UNL260      0.2090
   1561 O          20.2100    6.8918   27.5164 O.3   261  UNL261     -0.3982
   1562 C          18.7943    6.8918   27.5164 C.3   261  UNL261      0.0330
   1563 H          18.4290    6.0324   28.0842 H     261  UNL261      0.0521
   1564 H          18.4291    6.8442   26.4876 H     261  UNL261      0.0521
   1565 H          18.4390    7.8127   27.9846 H     261  UNL261      0.0521
   1566 H          20.4958    6.0633   27.0951 H     261  UNL261      0.2090
   1567 O          20.1731    9.9718   -1.9811 O.3   262  UNL262     -0.3982
   1568 C          20.9879   10.1794   -0.8420 C.3   262  UNL262      0.0330
   1569 H          21.6382    9.3134   -0.6953 H     262  UNL262      0.0521
   1570 H          20.3559   10.3270    0.0371 H     262  UNL262      0.0521
   1571 H          21.6008   11.0697   -1.0010 H     262  UNL262      0.0521
   1572 H          19.6412    9.1758   -1.8107 H     262  UNL262      0.2090
   1573 O          21.7283    9.6475    2.2263 O.3   263  UNL263     -0.3982
   1574 C          21.1212   10.1985    3.3806 C.3   263  UNL263      0.0330
   1575 H          20.7139    9.3942    3.9984 H     263  UNL263      0.0521
   1576 H          20.3233   10.8828    3.0822 H     263  UNL263      0.0521
   1577 H          21.8745   10.7471    3.9507 H     263  UNL263      0.0521
   1578 H          21.0359    9.1671    1.7410 H     263  UNL263      0.2090
   1579 O          21.1811   10.6935    6.4231 O.3   264  UNL264     -0.3982
   1580 C          19.7799   10.4924    6.4517 C.3   264  UNL264      0.0330
   1581 H          19.5521    9.5890    7.0229 H     264  UNL264      0.0521
   1582 H          19.4041   10.3950    5.4303 H     264  UNL264      0.0521
   1583 H          19.3072   11.3528    6.9310 H     264  UNL264      0.0521
   1584 H          21.5728    9.9146    5.9925 H     264  UNL264      0.2090
   1585 O          20.5810   10.0974    9.8925 O.3   265  UNL265     -0.3982
   1586 C          19.1799    9.9026    9.9502 C.3   265  UNL265      0.0330
   1587 H          18.9521    9.0926   10.6476 H     265  UNL265      0.0521
   1588 H          18.8040    9.6567    8.9541 H     265  UNL265      0.0521
   1589 H          18.7071   10.8240   10.2984 H     265  UNL265      0.0521
   1590 H          20.9728    9.2639    9.5807 H     265  UNL265      0.2090
   1591 O          20.3127   10.8238   12.9779 O.3   266  UNL266     -0.3982
   1592 C          18.9652   10.4253   13.1509 C.3   266  UNL266      0.0330
   1593 H          18.7027   10.4751   14.2106 H     266  UNL266      0.0521
   1594 H          18.8354    9.4057   12.7800 H     266  UNL266      0.0521
   1595 H          18.3194   11.1013   12.5856 H     266  UNL266      0.0521
   1596 H          20.8614   10.2061   13.4906 H     266  UNL266      0.2090
   1597 O          21.5981    9.7584   16.6717 O.3   267  UNL267     -0.3982
   1598 C          20.1969    9.7584   16.4685 C.3   267  UNL267      0.0330
   1599 H          19.7098    9.2157   17.2824 H     267  UNL267      0.0521
   1600 H          19.9667    9.2844   15.5112 H     267  UNL267      0.0521
   1601 H          19.8396   10.7907   16.4567 H     267  UNL267      0.0521
   1602 H          21.8859    8.8296   16.6774 H     267  UNL267      0.2090
   1603 O          21.6101   10.3420   20.2923 O.3   268  UNL268     -0.3982
   1604 C          20.1943   10.3420   20.2923 C.3   268  UNL268      0.0330
   1605 H          19.8290    9.4826   20.8601 H     268  UNL268      0.0521
   1606 H          19.8291   10.2944   19.2636 H     268  UNL268      0.0521
   1607 H          19.8390   11.2629   20.7606 H     268  UNL268      0.0521
   1608 H          21.8958    9.5134   19.8711 H     268  UNL268      0.2090
   1609 O          19.4100   10.1802   23.3853 O.3   269  UNL269     -0.3982
   1610 C          17.9943   10.1802   23.3853 C.3   269  UNL269      0.0330
   1611 H          17.6290   11.1494   23.7340 H     269  UNL269      0.0521
   1612 H          17.6291    9.3845   24.0391 H     269  UNL269      0.0521
   1613 H          17.6390   10.0042   22.3673 H     269  UNL269      0.0521
   1614 H          19.6958   10.3386   24.3012 H     269  UNL269      0.2090
   1615 O          21.6101   10.3420   27.5164 O.3   270  UNL270     -0.3982
   1616 C          20.1943   10.3420   27.5164 C.3   270  UNL270      0.0330
   1617 H          19.8290    9.4826   28.0842 H     270  UNL270      0.0521
   1618 H          19.8291   10.2944   26.4876 H     270  UNL270      0.0521
   1619 H          19.8390   11.2629   27.9846 H     270  UNL270      0.0521
   1620 H          21.8958    9.5134   27.0951 H     270  UNL270      0.2090
   1621 O          21.5834   14.0817   -1.0784 O.3   271  UNL271     -0.3982
   1622 C          20.2807   13.6241   -1.3913 C.3   271  UNL271      0.0330
   1623 H          19.7772   14.3595   -2.0237 H     271  UNL271      0.0521
   1624 H          19.7152   13.4732   -0.4685 H     271  UNL271      0.0521
   1625 H          20.3567   12.6758   -1.9285 H     271  UNL271      0.0521
   1626 H          21.4838   14.9238   -0.6025 H     271  UNL271      0.2090
   1627 O          21.4086   14.4502    3.5163 O.3   272  UNL272     -0.3982
   1628 C          20.2123   13.8331    3.0774 C.3   272  UNL272      0.0330
   1629 H          19.5849   13.5973    3.9406 H     272  UNL272      0.0521
   1630 H          20.4527   12.9198    2.5279 H     272  UNL272      0.0521
   1631 H          19.6781   14.5220    2.4188 H     272  UNL272      0.0521
   1632 H          21.8605   13.8156    4.0982 H     272  UNL272      0.2090
   1633 O          18.6141   14.1750    6.2866 O.3   273  UNL273     -0.3982
   1634 C          17.2145   14.3815    6.2308 C.3   273  UNL273      0.0330
   1635 H          16.8935   14.9476    7.1088 H     273  UNL273      0.0521
   1636 H          16.7039   13.4159    6.1999 H     273  UNL273      0.0521
   1637 H          16.9746   14.9472    5.3275 H     273  UNL273      0.0521
   1638 H          18.7964   13.6710    7.0979 H     273  UNL273      0.2090
   1639 O          21.5548   13.7589    9.3272 O.3   274  UNL274     -0.3982
   1640 C          20.2859   14.0543    9.8814 C.3   274  UNL274      0.0330
   1641 H          19.9870   13.2505   10.5588 H     274  UNL274      0.0521
   1642 H          19.5524   14.1601    9.0784 H     274  UNL274      0.0521
   1643 H          20.3510   14.9919   10.4383 H     274  UNL274      0.0521
   1644 H          21.4658   12.9224    8.8394 H     274  UNL274      0.2090
   1645 O          20.3810   14.1438   13.0463 O.3   275  UNL275     -0.3982
   1646 C          18.9799   13.9427   13.0755 C.3   275  UNL275      0.0330
   1647 H          18.7521   13.0410   13.6493 H     275  UNL275      0.0521
   1648 H          18.6040   13.8423   12.0544 H     275  UNL275      0.0521
   1649 H          18.5071   14.8046   13.5522 H     275  UNL275      0.0521
   1650 H          20.7728   13.3636   12.6180 H     275  UNL275      0.2090
   1651 O          20.7232   14.7731   17.0583 O.3   276  UNL276     -0.3982
   1652 C          20.8334   13.6226   16.2405 C.3   276  UNL276      0.0330
   1653 H          20.7820   12.7258   16.8629 H     276  UNL276      0.0521
   1654 H          21.7820   13.6492   15.6987 H     276  UNL276      0.0521
   1655 H          20.0078   13.6148   15.5251 H     276  UNL276      0.0521
   1656 H          21.4687   14.7525   17.6823 H     276  UNL276      0.2090
   1657 O          20.4100   13.9883   19.9472 O.3   277  UNL277     -0.3982
   1658 C          18.9943   13.9883   19.9472 C.3   277  UNL277      0.0330
   1659 H          18.6290   13.9951   20.9772 H     277  UNL277      0.0521
   1660 H          18.6291   13.1002   19.4257 H     277  UNL277      0.0521
   1661 H          18.6390   14.8832   19.4310 H     277  UNL277      0.0521
   1662 H          20.6958   13.1831   20.4116 H     277  UNL277      0.2090
   1663 O          21.6101   13.2069   23.3580 O.3   278  UNL278     -0.3982
   1664 C          20.1943   13.2069   23.3580 C.3   278  UNL278      0.0330
   1665 H          19.8290   12.5706   24.1679 H     278  UNL278      0.0521
   1666 H          19.8291   12.8372   22.3968 H     278  UNL278      0.0521
   1667 H          19.8390   14.2286   23.5118 H     278  UNL278      0.0521
   1668 H          21.8958   12.2878   23.2197 H     278  UNL278      0.2090
   1669 O          20.4100   14.0006   27.4962 O.3   279  UNL279     -0.3982
   1670 C          18.9943   14.0006   27.4962 C.3   279  UNL279      0.0330
   1671 H          18.6290   13.2316   28.1814 H     279  UNL279      0.0521
   1672 H          18.6291   13.8059   26.4849 H     279  UNL279      0.0521
   1673 H          18.6390   14.9792   27.8274 H     279  UNL279      0.0521
   1674 H          20.6958   13.1202   27.1982 H     279  UNL279      0.2090
@<TRIPOS>BOND
     1     1     2    1
     2     1     6    1
     3     2     3    1
     4     2     4    1
     5     2     5    1
     6     7     8    1
     7     7    12    1
     8     8     9    1
     9     8    10    1
    10     8    11    1
    11    13    14    1
    12    13    18    1
    13    14    15    1
    14    14    16    1
    15    14    17    1
    16    19    20    1
    17    19    24    1
    18    20    21    1
    19    20    22    1
    20    20    23    1
    21    25    26    1
    22    25    30    1
    23    26    27    1
    24    26    28    1
    25    26    29    1
    26    31    32    1
    27    31    36    1
    28    32    33    1
    29    32    34    1
    30    32    35    1
    31    37    38    1
    32    37    42    1
    33    38    39    1
    34    38    40    1
    35    38    41    1
    36    43    44    1
    37    43    48    1
    38    44    45    1
    39    44    46    1
    40    44    47    1
    41    49    50    1
    42    49    54    1
    43    50    51    1
    44    50    52    1
    45    50    53    1
    46    55    56    1
    47    55    60    1
    48    56    57    1
    49    56    58    1
    50    56    59    1
    51    61    62    1
    52    61    66    1
    53    62    63    1
    54    62    64    1
    55    62    65    1
    56    67    68    1
    57    67    72    1
    58    68    69    1
    59    68    70    1
    60    68    71    1
    61    73    74    1
    62    73    78    1
    63    74    75    1
    64    74    76    1
    65    74    77    1
    66    79    80    1
    67    79    84    1
    68    80    81    1
    69    80    82    1
    70    80    83    1
    71    85    86    1
    72    85    90    1
    73    86    87    1
    74    86    88    1
    75    86    89    1
    76    91    92    1
    77    91    96    1
    78    92    93    1
    79    92    94    1
    80    92    95    1
    81    97    98    1
    82    97   102    1
    83    98    99    1
    84    98   100    1
    85    98   101    1
    86   103   104    1
    87   103   108    1
    88   104   105    1
    89   104   106    1
    90   104   107    1
    91   109   110    1
    92   109   114    1
    93   110   111    1
    94   110   112    1
    95   110   113    1
    96   115   116    1
    97   115   120    1
    98   116   117    1
    99   116   118    1
   100   116   119    1
   101   121   122    1
   102   121   126    1
   103   122   123    1
   104   122   124    1
   105   122   125    1
   106   127   128    1
   107   127   132    1
   108   128   129    1
   109   128   130    1
   110   128   131    1
   111   133   134    1
   112   133   138    1
   113   134   135    1
   114   134   136    1
   115   134   137    1
   116   139   140    1
   117   139   144    1
   118   140   141    1
   119   140   142    1
   120   140   143    1
   121   145   146    1
   122   145   150    1
   123   146   147    1
   124   146   148    1
   125   146   149    1
   126   151   152    1
   127   151   156    1
   128   152   153    1
   129   152   154    1
   130   152   155    1
   131   157   158    1
   132   157   162    1
   133   158   159    1
   134   158   160    1
   135   158   161    1
   136   163   164    1
   137   163   168    1
   138   164   165    1
   139   164   166    1
   140   164   167    1
   141   169   170    1
   142   169   174    1
   143   170   171    1
   144   170   172    1
   145   170   173    1
   146   175   176    1
   147   175   180    1
   148   176   177    1
   149   176   178    1
   150   176   179    1
   151   181   182    1
   152   181   186    1
   153   182   183    1
   154   182   184    1
   155   182   185    1
   156   187   188    1
   157   187   192    1
   158   188   189    1
   159   188   190    1
   160   188   191    1
   161   193   194    1
   162   193   198    1
   163   194   195    1
   164   194   196    1
   165   194   197    1
   166   199   200    1
   167   199   204    1
   168   200   201    1
   169   200   202    1
   170   200   203    1
   171   205   206    1
   172   205   210    1
   173   206   207    1
   174   206   208    1
   175   206   209    1
   176   211   212    1
   177   211   216    1
   178   212   213    1
   179   212   214    1
   180   212   215    1
   181   217   218    1
   182   217   222    1
   183   218   219    1
   184   218   220    1
   185   218   221    1
   186   223   224    1
   187   223   228    1
   188   224   225    1
   189   224   226    1
   190   224   227    1
   191   229   230    1
   192   229   234    1
   193   230   231    1
   194   230   232    1
   195   230   233    1
   196   235   236    1
   197   235   240    1
   198   236   237    1
   199   236   238    1
   200   236   239    1
   201   241   242    1
   202   241   246    1
   203   242   243    1
   204   242   244    1
   205   242   245    1
   206   247   248    1
   207   247   252    1
   208   248   249    1
   209   248   250    1
   210   248   251    1
   211   253   254    1
   212   253   258    1
   213   254   255    1
   214   254   256    1
   215   254   257    1
   216   259   260    1
   217   259   264    1
   218   260   261    1
   219   260   262    1
   220   260   263    1
   221   265   266    1
   222   265   270    1
   223   266   267    1
   224   266   268    1
   225   266   269    1
   226   271   272    1
   227   271   276    1
   228   272   273    1
   229   272   274    1
   230   272   275    1
   231   277   278    1
   232   277   282    1
   233   278   279    1
   234   278   280    1
   235   278   281    1
   236   283   284    1
   237   283   288    1
   238   284   285    1
   239   284   286    1
   240   284   287    1
   241   289   290    1
   242   289   294    1
   243   290   291    1
   244   290   292    1
   245   290   293    1
   246   295   296    1
   247   295   300    1
   248   296   297    1
   249   296   298    1
   250   296   299    1
   251   301   302    1
   252   301   306    1
   253   302   303    1
   254   302   304    1
   255   302   305    1
   256   307   308    1
   257   307   312    1
   258   308   309    1
   259   308   310    1
   260   308   311    1
   261   313   314    1
   262   313   318    1
   263   314   315    1
   264   314   316    1
   265   314   317    1
   266   319   320    1
   267   319   324    1
   268   320   321    1
   269   320   322    1
   270   320   323    1
   271   325   326    1
   272   325   330    1
   273   326   327    1
   274   326   328    1
   275   326   329    1
   276   331   332    1
   277   331   336    1
   278   332   333    1
   279   332   334    1
   280   332   335    1
   281   337   338    1
   282   337   342    1
   283   338   339    1
   284   338   340    1
   285   338   341    1
   286   343   344    1
   287   343   348    1
   288   344   345    1
   289   344   346    1
   290   344   347    1
   291   349   350    1
   292   349   354    1
   293   350   351    1
   294   350   352    1
   295   350   353    1
   296   355   356    1
   297   355   360    1
   298   356   357    1
   299   356   358    1
   300   356   359    1
   301   361   362    1
   302   361   366    1
   303   362   363    1
   304   362   364    1
   305   362   365    1
   306   367   368    1
   307   367   372    1
   308   368   369    1
   309   368   370    1
   310   368   371    1
   311   373   374    1
   312   373   378    1
   313   374   375    1
   314   374   376    1
   315   374   377    1
   316   379   380    1
   317   379   384    1
   318   380   381    1
   319   380   382    1
   320   380   383    1
   321   385   386    1
   322   385   390    1
   323   386   387    1
   324   386   388    1
   325   386   389    1
   326   391   392    1
   327   391   396    1
   328   392   393    1
   329   392   394    1
   330   392   395    1
   331   397   398    1
   332   397   402    1
   333   398   399    1
   334   398   400    1
   335   398   401    1
   336   403   404    1
   337   403   408    1
   338   404   405    1
   339   404   406    1
   340   404   407    1
   341   409   410    1
   342   409   414    1
   343   410   411    1
   344   410   412    1
   345   410   413    1
   346   415   416    1
   347   415   420    1
   348   416   417    1
   349   416   418    1
   350   416   419    1
   351   421   422    1
   352   421   426    1
   353   422   423    1
   354   422   424    1
   355   422   425    1
   356   427   428    1
   357   427   432    1
   358   428   429    1
   359   428   430    1
   360   428   431    1
   361   433   434    1
   362   433   438    1
   363   434   435    1
   364   434   436    1
   365   434   437    1
   366   439   440    1
   367   439   444    1
   368   440   441    1
   369   440   442    1
   370   440   443    1
   371   445   446    1
   372   445   450    1
   373   446   447    1
   374   446   448    1
   375   446   449    1
   376   451   452    1
   377   451   456    1
   378   452   453    1
   379   452   454    1
   380   452   455    1
   381   457   458    1
   382   457   462    1
   383   458   459    1
   384   458   460    1
   385   458   461    1
   386   463   464    1
   387   463   468    1
   388   464   465    1
   389   464   466    1
   390   464   467    1
   391   469   470    1
   392   469   474    1
   393   470   471    1
   394   470   472    1
   395   470   473    1
   396   475   476    1
   397   475   480    1
   398   476   477    1
   399   476   478    1
   400   476   479    1
   401   481   482    1
   402   481   486    1
   403   482   483    1
   404   482   484    1
   405   482   485    1
   406   487   488    1
   407   487   492    1
   408   488   489    1
   409   488   490    1
   410   488   491    1
   411   493   494    1
   412   493   498    1
   413   494   495    1
   414   494   496    1
   415   494   497    1
   416   499   500    1
   417   499   504    1
   418   500   501    1
   419   500   502    1
   420   500   503    1
   421   505   506    1
   422   505   510    1
   423   506   507    1
   424   506   508    1
   425   506   509    1
   426   511   512    1
   427   511   516    1
   428   512   513    1
   429   512   514    1
   430   512   515    1
   431   517   518    1
   432   517   522    1
   433   518   519    1
   434   518   520    1
   435   518   521    1
   436   523   524    1
   437   523   528    1
   438   524   525    1
   439   524   526    1
   440   524   527    1
   441   529   530    1
   442   529   534    1
   443   530   531    1
   444   530   532    1
   445   530   533    1
   446   535   536    1
   447   535   540    1
   448   536   537    1
   449   536   538    1
   450   536   539    1
   451   541   542    1
   452   541   546    1
   453   542   543    1
   454   542   544    1
   455   542   545    1
   456   547   548    1
   457   547   552    1
   458   548   549    1
   459   548   550    1
   460   548   551    1
   461   553   554    1
   462   553   558    1
   463   554   555    1
   464   554   556    1
   465   554   557    1
   466   559   560    1
   467   559   564    1
   468   560   561    1
   469   560   562    1
   470   560   563    1
   471   565   566    1
   472   565   570    1
   473   566   567    1
   474   566   568    1
   475   566   569    1
   476   571   572    1
   477   571   576    1
   478   572   573    1
   479   572   574    1
   480   572   575    1
   481   577   578    1
   482   577   582    1
   483   578   579    1
   484   578   580    1
   485   578   581    1
   486   583   584    1
   487   583   588    1
   488   584   585    1
   489   584   586    1
   490   584   587    1
   491   589   590    1
   492   589   594    1
   493   590   591    1
   494   590   592    1
   495   590   593    1
   496   595   596    1
   497   595   600    1
   498   596   597    1
   499   596   598    1
   500   596   599    1
   501   601   602    1
   502   601   606    1
   503   602   603    1
   504   602   604    1
   505   602   605    1
   506   607   608    1
   507   607   612    1
   508   608   609    1
   509   608   610    1
   510   608   611    1
   511   613   614    1
   512   613   618    1
   513   614   615    1
   514   614   616    1
   515   614   617    1
   516   619   620    1
   517   619   624    1
   518   620   621    1
   519   620   622    1
   520   620   623    1
   521   625   626    1
   522   625   630    1
   523   626   627    1
   524   626   628    1
   525   626   629    1
   526   631   632    1
   527   631   636    1
   528   632   633    1
   529   632   634    1
   530   632   635    1
   531   637   638    1
   532   637   642    1
   533   638   639    1
   534   638   640    1
   535   638   641    1
   536   643   644    1
   537   643   648    1
   538   644   645    1
   539   644   646    1
   540   644   647    1
   541   649   650    1
   542   649   654    1
   543   650   651    1
   544   650   652    1
   545   650   653    1
   546   655   656    1
   547   655   660    1
   548   656   657    1
   549   656   658    1
   550   656   659    1
   551   661   662    1
   552   661   666    1
   553   662   663    1
   554   662   664    1
   555   662   665    1
   556   667   668    1
   557   667   672    1
   558   668   669    1
   559   668   670    1
   560   668   671    1
   561   673   674    1
   562   673   678    1
   563   674   675    1
   564   674   676    1
   565   674   677    1
   566   679   680    1
   567   679   684    1
   568   680   681    1
   569   680   682    1
   570   680   683    1
   571   685   686    1
   572   685   690    1
   573   686   687    1
   574   686   688    1
   575   686   689    1
   576   691   692    1
   577   691   696    1
   578   692   693    1
   579   692   694    1
   580   692   695    1
   581   697   698    1
   582   697   702    1
   583   698   699    1
   584   698   700    1
   585   698   701    1
   586   703   704    1
   587   703   708    1
   588   704   705    1
   589   704   706    1
   590   704   707    1
   591   709   710    1
   592   709   714    1
   593   710   711    1
   594   710   712    1
   595   710   713    1
   596   715   716    1
   597   715   720    1
   598   716   717    1
   599   716   718    1
   600   716   719    1
   601   721   722    1
   602   721   726    1
   603   722   723    1
   604   722   724    1
   605   722   725    1
   606   727   728    1
   607   727   732    1
   608   728   729    1
   609   728   730    1
   610   728   731    1
   611   733   734    1
   612   733   738    1
   613   734   735    1
   614   734   736    1
   615   734   737    1
   616   739   740    1
   617   739   744    1
   618   740   741    1
   619   740   742    1
   620   740   743    1
   621   745   746    1
   622   745   750    1
   623   746   747    1
   624   746   748    1
   625   746   749    1
   626   751   752    1
   627   751   756    1
   628   752   753    1
   629   752   754    1
   630   752   755    1
   631   757   758    1
   632   757   762    1
   633   758   759    1
   634   758   760    1
   635   758   761    1
   636   763   764    1
   637   763   768    1
   638   764   765    1
   639   764   766    1
   640   764   767    1
   641   769   770    1
   642   769   774    1
   643   770   771    1
   644   770   772    1
   645   770   773    1
   646   775   776    1
   647   775   780    1
   648   776   777    1
   649   776   778    1
   650   776   779    1
   651   781   782    1
   652   781   786    1
   653   782   783    1
   654   782   784    1
   655   782   785    1
   656   787   788    1
   657   787   792    1
   658   788   789    1
   659   788   790    1
   660   788   791    1
   661   793   794    1
   662   793   798    1
   663   794   795    1
   664   794   796    1
   665   794   797    1
   666   799   800    1
   667   799   804    1
   668   800   801    1
   669   800   802    1
   670   800   803    1
   671   805   806    1
   672   805   810    1
   673   806   807    1
   674   806   808    1
   675   806   809    1
   676   811   812    1
   677   811   816    1
   678   812   813    1
   679   812   814    1
   680   812   815    1
   681   817   818    1
   682   817   822    1
   683   818   819    1
   684   818   820    1
   685   818   821    1
   686   823   824    1
   687   823   828    1
   688   824   825    1
   689   824   826    1
   690   824   827    1
   691   829   830    1
   692   829   834    1
   693   830   831    1
   694   830   832    1
   695   830   833    1
   696   835   836    1
   697   835   840    1
   698   836   837    1
   699   836   838    1
   700   836   839    1
   701   841   842    1
   702   841   846    1
   703   842   843    1
   704   842   844    1
   705   842   845    1
   706   847   848    1
   707   847   852    1
   708   848   849    1
   709   848   850    1
   710   848   851    1
   711   853   854    1
   712   853   858    1
   713   854   855    1
   714   854   856    1
   715   854   857    1
   716   859   860    1
   717   859   864    1
   718   860   861    1
   719   860   862    1
   720   860   863    1
   721   865   866    1
   722   865   870    1
   723   866   867    1
   724   866   868    1
   725   866   869    1
   726   871   872    1
   727   871   876    1
   728   872   873    1
   729   872   874    1
   730   872   875    1
   731   877   878    1
   732   877   882    1
   733   878   879    1
   734   878   880    1
   735   878   881    1
   736   883   884    1
   737   883   888    1
   738   884   885    1
   739   884   886    1
   740   884   887    1
   741   889   890    1
   742   889   894    1
   743   890   891    1
   744   890   892    1
   745   890   893    1
   746   895   896    1
   747   895   900    1
   748   896   897    1
   749   896   898    1
   750   896   899    1
   751   901   902    1
   752   901   906    1
   753   902   903    1
   754   902   904    1
   755   902   905    1
   756   907   908    1
   757   907   912    1
   758   908   909    1
   759   908   910    1
   760   908   911    1
   761   913   914    1
   762   913   918    1
   763   914   915    1
   764   914   916    1
   765   914   917    1
   766   919   920    1
   767   919   924    1
   768   920   921    1
   769   920   922    1
   770   920   923    1
   771   925   926    1
   772   925   930    1
   773   926   927    1
   774   926   928    1
   775   926   929    1
   776   931   932    1
   777   931   936    1
   778   932   933    1
   779   932   934    1
   780   932   935    1
   781   937   938    1
   782   937   942    1
   783   938   939    1
   784   938   940    1
   785   938   941    1
   786   943   944    1
   787   943   948    1
   788   944   945    1
   789   944   946    1
   790   944   947    1
   791   949   950    1
   792   949   954    1
   793   950   951    1
   794   950   952    1
   795   950   953    1
   796   955   956    1
   797   955   960    1
   798   956   957    1
   799   956   958    1
   800   956   959    1
   801   961   962    1
   802   961   966    1
   803   962   963    1
   804   962   964    1
   805   962   965    1
   806   967   968    1
   807   967   972    1
   808   968   969    1
   809   968   970    1
   810   968   971    1
   811   973   974    1
   812   973   978    1
   813   974   975    1
   814   974   976    1
   815   974   977    1
   816   979   980    1
   817   979   984    1
   818   980   981    1
   819   980   982    1
   820   980   983    1
   821   985   986    1
   822   985   990    1
   823   986   987    1
   824   986   988    1
   825   986   989    1
   826   991   992    1
   827   991   996    1
   828   992   993    1
   829   992   994    1
   830   992   995    1
   831   997   998    1
   832   997  1002    1
   833   998   999    1
   834   998  1000    1
   835   998  1001    1
   836  1003  1004    1
   837  1003  1008    1
   838  1004  1005    1
   839  1004  1006    1
   840  1004  1007    1
   841  1009  1010    1
   842  1009  1014    1
   843  1010  1011    1
   844  1010  1012    1
   845  1010  1013    1
   846  1015  1016    1
   847  1015  1020    1
   848  1016  1017    1
   849  1016  1018    1
   850  1016  1019    1
   851  1021  1022    1
   852  1021  1026    1
   853  1022  1023    1
   854  1022  1024    1
   855  1022  1025    1
   856  1027  1028    1
   857  1027  1032    1
   858  1028  1029    1
   859  1028  1030    1
   860  1028  1031    1
   861  1033  1034    1
   862  1033  1038    1
   863  1034  1035    1
   864  1034  1036    1
   865  1034  1037    1
   866  1039  1040    1
   867  1039  1044    1
   868  1040  1041    1
   869  1040  1042    1
   870  1040  1043    1
   871  1045  1046    1
   872  1045  1050    1
   873  1046  1047    1
   874  1046  1048    1
   875  1046  1049    1
   876  1051  1052    1
   877  1051  1056    1
   878  1052  1053    1
   879  1052  1054    1
   880  1052  1055    1
   881  1057  1058    1
   882  1057  1062    1
   883  1058  1059    1
   884  1058  1060    1
   885  1058  1061    1
   886  1063  1064    1
   887  1063  1068    1
   888  1064  1065    1
   889  1064  1066    1
   890  1064  1067    1
   891  1069  1070    1
   892  1069  1074    1
   893  1070  1071    1
   894  1070  1072    1
   895  1070  1073    1
   896  1075  1076    1
   897  1075  1080    1
   898  1076  1077    1
   899  1076  1078    1
   900  1076  1079    1
   901  1081  1082    1
   902  1081  1086    1
   903  1082  1083    1
   904  1082  1084    1
   905  1082  1085    1
   906  1087  1088    1
   907  1087  1092    1
   908  1088  1089    1
   909  1088  1090    1
   910  1088  1091    1
   911  1093  1094    1
   912  1093  1098    1
   913  1094  1095    1
   914  1094  1096    1
   915  1094  1097    1
   916  1099  1100    1
   917  1099  1104    1
   918  1100  1101    1
   919  1100  1102    1
   920  1100  1103    1
   921  1105  1106    1
   922  1105  1110    1
   923  1106  1107    1
   924  1106  1108    1
   925  1106  1109    1
   926  1111  1112    1
   927  1111  1116    1
   928  1112  1113    1
   929  1112  1114    1
   930  1112  1115    1
   931  1117  1118    1
   932  1117  1122    1
   933  1118  1119    1
   934  1118  1120    1
   935  1118  1121    1
   936  1123  1124    1
   937  1123  1128    1
   938  1124  1125    1
   939  1124  1126    1
   940  1124  1127    1
   941  1129  1130    1
   942  1129  1134    1
   943  1130  1131    1
   944  1130  1132    1
   945  1130  1133    1
   946  1135  1136    1
   947  1135  1140    1
   948  1136  1137    1
   949  1136  1138    1
   950  1136  1139    1
   951  1141  1142    1
   952  1141  1146    1
   953  1142  1143    1
   954  1142  1144    1
   955  1142  1145    1
   956  1147  1148    1
   957  1147  1152    1
   958  1148  1149    1
   959  1148  1150    1
   960  1148  1151    1
   961  1153  1154    1
   962  1153  1158    1
   963  1154  1155    1
   964  1154  1156    1
   965  1154  1157    1
   966  1159  1160    1
   967  1159  1164    1
   968  1160  1161    1
   969  1160  1162    1
   970  1160  1163    1
   971  1165  1166    1
   972  1165  1170    1
   973  1166  1167    1
   974  1166  1168    1
   975  1166  1169    1
   976  1171  1172    1
   977  1171  1176    1
   978  1172  1173    1
   979  1172  1174    1
   980  1172  1175    1
   981  1177  1178    1
   982  1177  1182    1
   983  1178  1179    1
   984  1178  1180    1
   985  1178  1181    1
   986  1183  1184    1
   987  1183  1188    1
   988  1184  1185    1
   989  1184  1186    1
   990  1184  1187    1
   991  1189  1190    1
   992  1189  1194    1
   993  1190  1191    1
   994  1190  1192    1
   995  1190  1193    1
   996  1195  1196    1
   997  1195  1200    1
   998  1196  1197    1
   999  1196  1198    1
  1000  1196  1199    1
  1001  1201  1202    1
  1002  1201  1206    1
  1003  1202  1203    1
  1004  1202  1204    1
  1005  1202  1205    1
  1006  1207  1208    1
  1007  1207  1212    1
  1008  1208  1209    1
  1009  1208  1210    1
  1010  1208  1211    1
  1011  1213  1214    1
  1012  1213  1218    1
  1013  1214  1215    1
  1014  1214  1216    1
  1015  1214  1217    1
  1016  1219  1220    1
  1017  1219  1224    1
  1018  1220  1221    1
  1019  1220  1222    1
  1020  1220  1223    1
  1021  1225  1226    1
  1022  1225  1230    1
  1023  1226  1227    1
  1024  1226  1228    1
  1025  1226  1229    1
  1026  1231  1232    1
  1027  1231  1236    1
  1028  1232  1233    1
  1029  1232  1234    1
  1030  1232  1235    1
  1031  1237  1238    1
  1032  1237  1242    1
  1033  1238  1239    1
  1034  1238  1240    1
  1035  1238  1241    1
  1036  1243  1244    1
  1037  1243  1248    1
  1038  1244  1245    1
  1039  1244  1246    1
  1040  1244  1247    1
  1041  1249  1250    1
  1042  1249  1254    1
  1043  1250  1251    1
  1044  1250  1252    1
  1045  1250  1253    1
  1046  1255  1256    1
  1047  1255  1260    1
  1048  1256  1257    1
  1049  1256  1258    1
  1050  1256  1259    1
  1051  1261  1262    1
  1052  1261  1266    1
  1053  1262  1263    1
  1054  1262  1264    1
  1055  1262  1265    1
  1056  1267  1268    1
  1057  1267  1272    1
  1058  1268  1269    1
  1059  1268  1270    1
  1060  1268  1271    1
  1061  1273  1274    1
  1062  1273  1278    1
  1063  1274  1275    1
  1064  1274  1276    1
  1065  1274  1277    1
  1066  1279  1280    1
  1067  1279  1284    1
  1068  1280  1281    1
  1069  1280  1282    1
  1070  1280  1283    1
  1071  1285  1286    1
  1072  1285  1290    1
  1073  1286  1287    1
  1074  1286  1288    1
  1075  1286  1289    1
  1076  1291  1292    1
  1077  1291  1296    1
  1078  1292  1293    1
  1079  1292  1294    1
  1080  1292  1295    1
  1081  1297  1298    1
  1082  1297  1302    1
  1083  1298  1299    1
  1084  1298  1300    1
  1085  1298  1301    1
  1086  1303  1304    1
  1087  1303  1308    1
  1088  1304  1305    1
  1089  1304  1306    1
  1090  1304  1307    1
  1091  1309  1310    1
  1092  1309  1314    1
  1093  1310  1311    1
  1094  1310  1312    1
  1095  1310  1313    1
  1096  1315  1316    1
  1097  1315  1320    1
  1098  1316  1317    1
  1099  1316  1318    1
  1100  1316  1319    1
  1101  1321  1322    1
  1102  1321  1326    1
  1103  1322  1323    1
  1104  1322  1324    1
  1105  1322  1325    1
  1106  1327  1328    1
  1107  1327  1332    1
  1108  1328  1329    1
  1109  1328  1330    1
  1110  1328  1331    1
  1111  1333  1334    1
  1112  1333  1338    1
  1113  1334  1335    1
  1114  1334  1336    1
  1115  1334  1337    1
  1116  1339  1340    1
  1117  1339  1344    1
  1118  1340  1341    1
  1119  1340  1342    1
  1120  1340  1343    1
  1121  1345  1346    1
  1122  1345  1350    1
  1123  1346  1347    1
  1124  1346  1348    1
  1125  1346  1349    1
  1126  1351  1352    1
  1127  1351  1356    1
  1128  1352  1353    1
  1129  1352  1354    1
  1130  1352  1355    1
  1131  1357  1358    1
  1132  1357  1362    1
  1133  1358  1359    1
  1134  1358  1360    1
  1135  1358  1361    1
  1136  1363  1364    1
  1137  1363  1368    1
  1138  1364  1365    1
  1139  1364  1366    1
  1140  1364  1367    1
  1141  1369  1370    1
  1142  1369  1374    1
  1143  1370  1371    1
  1144  1370  1372    1
  1145  1370  1373    1
  1146  1375  1376    1
  1147  1375  1380    1
  1148  1376  1377    1
  1149  1376  1378    1
  1150  1376  1379    1
  1151  1381  1382    1
  1152  1381  1386    1
  1153  1382  1383    1
  1154  1382  1384    1
  1155  1382  1385    1
  1156  1387  1388    1
  1157  1387  1392    1
  1158  1388  1389    1
  1159  1388  1390    1
  1160  1388  1391    1
  1161  1393  1394    1
  1162  1393  1398    1
  1163  1394  1395    1
  1164  1394  1396    1
  1165  1394  1397    1
  1166  1399  1400    1
  1167  1399  1404    1
  1168  1400  1401    1
  1169  1400  1402    1
  1170  1400  1403    1
  1171  1405  1406    1
  1172  1405  1410    1
  1173  1406  1407    1
  1174  1406  1408    1
  1175  1406  1409    1
  1176  1411  1412    1
  1177  1411  1416    1
  1178  1412  1413    1
  1179  1412  1414    1
  1180  1412  1415    1
  1181  1417  1418    1
  1182  1417  1422    1
  1183  1418  1419    1
  1184  1418  1420    1
  1185  1418  1421    1
  1186  1423  1424    1
  1187  1423  1428    1
  1188  1424  1425    1
  1189  1424  1426    1
  1190  1424  1427    1
  1191  1429  1430    1
  1192  1429  1434    1
  1193  1430  1431    1
  1194  1430  1432    1
  1195  1430  1433    1
  1196  1435  1436    1
  1197  1435  1440    1
  1198  1436  1437    1
  1199  1436  1438    1
  1200  1436  1439    1
  1201  1441  1442    1
  1202  1441  1446    1
  1203  1442  1443    1
  1204  1442  1444    1
  1205  1442  1445    1
  1206  1447  1448    1
  1207  1447  1452    1
  1208  1448  1449    1
  1209  1448  1450    1
  1210  1448  1451    1
  1211  1453  1454    1
  1212  1453  1458    1
  1213  1454  1455    1
  1214  1454  1456    1
  1215  1454  1457    1
  1216  1459  1460    1
  1217  1459  1464    1
  1218  1460  1461    1
  1219  1460  1462    1
  1220  1460  1463    1
  1221  1465  1466    1
  1222  1465  1470    1
  1223  1466  1467    1
  1224  1466  1468    1
  1225  1466  1469    1
  1226  1471  1472    1
  1227  1471  1476    1
  1228  1472  1473    1
  1229  1472  1474    1
  1230  1472  1475    1
  1231  1477  1478    1
  1232  1477  1482    1
  1233  1478  1479    1
  1234  1478  1480    1
  1235  1478  1481    1
  1236  1483  1484    1
  1237  1483  1488    1
  1238  1484  1485    1
  1239  1484  1486    1
  1240  1484  1487    1
  1241  1489  1490    1
  1242  1489  1494    1
  1243  1490  1491    1
  1244  1490  1492    1
  1245  1490  1493    1
  1246  1495  1496    1
  1247  1495  1500    1
  1248  1496  1497    1
  1249  1496  1498    1
  1250  1496  1499    1
  1251  1501  1502    1
  1252  1501  1506    1
  1253  1502  1503    1
  1254  1502  1504    1
  1255  1502  1505    1
  1256  1507  1508    1
  1257  1507  1512    1
  1258  1508  1509    1
  1259  1508  1510    1
  1260  1508  1511    1
  1261  1513  1514    1
  1262  1513  1518    1
  1263  1514  1515    1
  1264  1514  1516    1
  1265  1514  1517    1
  1266  1519  1520    1
  1267  1519  1524    1
  1268  1520  1521    1
  1269  1520  1522    1
  1270  1520  1523    1
  1271  1525  1526    1
  1272  1525  1530    1
  1273  1526  1527    1
  1274  1526  1528    1
  1275  1526  1529    1
  1276  1531  1532    1
  1277  1531  1536    1
  1278  1532  1533    1
  1279  1532  1534    1
  1280  1532  1535    1
  1281  1537  1538    1
  1282  1537  1542    1
  1283  1538  1539    1
  1284  1538  1540    1
  1285  1538  1541    1
  1286  1543  1544    1
  1287  1543  1548    1
  1288  1544  1545    1
  1289  1544  1546    1
  1290  1544  1547    1
  1291  1549  1550    1
  1292  1549  1554    1
  1293  1550  1551    1
  1294  1550  1552    1
  1295  1550  1553    1
  1296  1555  1556    1
  1297  1555  1560    1
  1298  1556  1557    1
  1299  1556  1558    1
  1300  1556  1559    1
  1301  1561  1562    1
  1302  1561  1566    1
  1303  1562  1563    1
  1304  1562  1564    1
  1305  1562  1565    1
  1306  1567  1568    1
  1307  1567  1572    1
  1308  1568  1569    1
  1309  1568  1570    1
  1310  1568  1571    1
  1311  1573  1574    1
  1312  1573  1578    1
  1313  1574  1575    1
  1314  1574  1576    1
  1315  1574  1577    1
  1316  1579  1580    1
  1317  1579  1584    1
  1318  1580  1581    1
  1319  1580  1582    1
  1320  1580  1583    1
  1321  1585  1586    1
  1322  1585  1590    1
  1323  1586  1587    1
  1324  1586  1588    1
  1325  1586  1589    1
  1326  1591  1592    1
  1327  1591  1596    1
  1328  1592  1593    1
  1329  1592  1594    1
  1330  1592  1595    1
  1331  1597  1598    1
  1332  1597  1602    1
  1333  1598  1599    1
  1334  1598  1600    1
  1335  1598  1601    1
  1336  1603  1604    1
  1337  1603  1608    1
  1338  1604  1605    1
  1339  1604  1606    1
  1340  1604  1607    1
  1341  1609  1610    1
  1342  1609  1614    1
  1343  1610  1611    1
  1344  1610  1612    1
  1345  1610  1613    1
  1346  1615  1616    1
  1347  1615  1620    1
  1348  1616  1617    1
  1349  1616  1618    1
  1350  1616  1619    1
  1351  1621  1622    1
  1352  1621  1626    1
  1353  1622  1623    1
  1354  1622  1624    1
  1355  1622  1625    1
  1356  1627  1628    1
  1357  1627  1632    1
  1358  1628  1629    1
  1359  1628  1630    1
  1360  1628  1631    1
  1361  1633  1634    1
  1362  1633  1638    1
  1363  1634  1635    1
  1364  1634  1636    1
  1365  1634  1637    1
  1366  1639  1640    1
  1367  1639  1644    1
  1368  1640  1641    1
  1369  1640  1642    1
  1370  1640  1643    1
  1371  1645  1646    1
  1372  1645  1650    1
  1373  1646  1647    1
  1374  1646  1648    1
  1375  1646  1649    1
  1376  1651  1652    1
  1377  1651  1656    1
  1378  1652  1653    1
  1379  1652  1654    1
  1380  1652  1655    1
  1381  1657  1658    1
  1382  1657  1662    1
  1383  1658  1659    1
  1384  1658  1660    1
  1385  1658  1661    1
  1386  1663  1664    1
  1387  1663  1668    1
  1388  1664  1665    1
  1389  1664  1666    1
  1390  1664  1667    1
  1391  1669  1670    1
  1392  1669  1674    1
  1393  1670  1671    1
  1394  1670  1672    1
  1395  1670  1673    1
