@<TRIPOS>MOLECULE
*****
 354 295 0 0 0
SMALL
GASTEIGER

@<TRIPOS>ATOM
      1 O          -1.2245    1.2561    1.0760 O.3     1  UNL1       -0.3982
      2 C          -0.5902    2.3877    1.6432 C.3     1  UNL1        0.0330
      3 H           0.4626    2.4013    1.3503 H       1  UNL1        0.0521
      4 H          -0.6760    2.3471    2.7318 H       1  UNL1        0.0521
      5 H          -1.0804    3.2918    1.2746 H       1  UNL1        0.0521
      6 H          -0.7683    0.4698    1.4212 H       1  UNL1        0.2090
      7 O          -1.1116    3.4237   12.4396 O.3     2  UNL2       -0.3982
      8 C          -1.0017    2.0421   12.7288 C.3     2  UNL2        0.0330
      9 H          -0.2028    1.8839   13.4575 H       2  UNL2        0.0521
     10 H          -0.7849    1.4927   11.8095 H       2  UNL2        0.0521
     11 H          -1.9479    1.6902   13.1465 H       2  UNL2        0.0521
     12 H          -0.2577    3.7072   12.0707 H       2  UNL2        0.2090
     13 O           4.1709    0.6888    2.2331 O.3     3  UNL3       -0.3982
     14 C           3.0909   -0.2267    2.2331 C.3     3  UNL3        0.0330
     15 H           3.4766   -1.2467    2.3048 H       3  UNL3        0.0521
     16 H           2.5119   -0.1084    1.3140 H       3  UNL3        0.0521
     17 H           2.4503   -0.0204    3.0937 H       3  UNL3        0.0521
     18 H           4.7213    0.4813    1.4589 H       3  UNL3        0.2090
     19 O           2.3774    2.3141    5.7505 O.3     4  UNL4       -0.3982
     20 C           1.0482    2.3141    5.2629 C.3     4  UNL4        0.0330
     21 H           0.3566    2.1249    6.0877 H       4  UNL4        0.0521
     22 H           0.9398    1.5415    4.4979 H       4  UNL4        0.0521
     23 H           0.8305    3.2909    4.8246 H       4  UNL4        0.0521
     24 H           2.5414    1.4354    6.1331 H       4  UNL4        0.2090
     25 O           3.7789    2.9691    9.2627 O.3     5  UNL5       -0.3982
     26 C           2.4497    2.4882    9.3426 C.3     5  UNL5        0.0330
     27 H           2.4066    1.6476   10.0396 H       5  UNL5        0.0521
     28 H           2.1159    2.1710    8.3516 H       5  UNL5        0.0521
     29 H           1.8024    3.2911    9.7029 H       5  UNL5        0.0521
     30 H           4.3294    2.2353    8.9404 H       5  UNL5        0.2090
     31 O           3.7939    1.3390   13.3493 O.3     6  UNL6       -0.3982
     32 C           3.0027    2.4442   12.9533 C.3     6  UNL6        0.0330
     33 H           1.9444    2.1852   13.0388 H       6  UNL6        0.0521
     34 H           3.2408    2.7127   11.9212 H       6  UNL6        0.0521
     35 H           3.2223    3.2911   13.6077 H       6  UNL6        0.0521
     36 H           3.5774    0.6036   12.7511 H       6  UNL6        0.2090
     37 O           1.5205    1.2604   16.4655 O.3     7  UNL7       -0.3982
     38 C           1.1332    2.5764   16.1152 C.3     7  UNL7        0.0330
     39 H           1.1479    2.6843   15.0278 H       7  UNL7        0.0521
     40 H           1.8197    3.2930   16.5725 H       7  UNL7        0.0521
     41 H           0.1210    2.7588   16.4837 H       7  UNL7        0.0521
     42 H           2.4219    1.1279   16.1257 H       7  UNL7        0.2090
     43 O           3.6504    3.6861    1.4631 O.3     8  UNL8       -0.3982
     44 C           3.1584    3.4740    2.7736 C.3     8  UNL8        0.0330
     45 H           2.4632    2.6308    2.7707 H       8  UNL8        0.0521
     46 H           2.6517    4.3766    3.1239 H       8  UNL8        0.0521
     47 H           3.9975    3.2494    3.4362 H       8  UNL8        0.0521
     48 H           2.8837    3.8831    0.8984 H       8  UNL8        0.2090
     49 O           6.9263    1.8625    1.0746 O.3     9  UNL9       -0.3982
     50 C           7.1289    3.0823    1.7644 C.3     9  UNL9        0.0330
     51 H           6.1715    3.4541    2.1377 H       9  UNL9        0.0521
     52 H           7.5775    3.8141    1.0882 H       9  UNL9        0.0521
     53 H           7.8025    2.9067    2.6064 H       9  UNL9        0.0521
     54 H           6.3252    2.0498    0.3336 H       9  UNL9        0.2090
     55 O           6.6908    1.5863    5.4470 O.3    10  UNL10      -0.3982
     56 C           5.5707    2.2469    6.0070 C.3    10  UNL10       0.0330
     57 H           4.8114    1.5103    6.2808 H      10  UNL10       0.0521
     58 H           5.1627    2.9537    5.2804 H      10  UNL10       0.0521
     59 H           5.8882    2.7891    6.9008 H      10  UNL10       0.0521
     60 H           6.3783    1.1144    4.6564 H      10  UNL10       0.2090
     61 O           6.8105    2.9805    9.3377 O.3    11  UNL11      -0.3982
     62 C           7.5807    1.9037    8.8361 C.3    11  UNL11       0.0330
     63 H           7.0226    0.9710    8.9504 H      11  UNL11       0.0521
     64 H           8.5253    1.8448    9.3821 H      11  UNL11       0.0521
     65 H           7.7849    2.0760    7.7767 H      11  UNL11       0.0521
     66 H           6.6453    2.7997   10.2787 H      11  UNL11       0.2090
     67 O           8.2212    0.5605   13.1050 O.3    12  UNL12      -0.3982
     68 C           6.9153    0.5605   12.5582 C.3    12  UNL12       0.0330
     69 H           6.3137   -0.2085   13.0492 H      12  UNL12       0.0521
     70 H           6.9690    0.3658   11.4843 H      12  UNL12       0.0521
     71 H           6.4596    1.5391   12.7265 H      12  UNL12       0.0521
     72 H           8.5999   -0.3199   12.9404 H      12  UNL12       0.2090
     73 O           5.8166    3.1188   15.4372 O.3    13  UNL13      -0.3982
     74 C           5.7095    1.7995   15.9398 C.3    13  UNL13       0.0330
     75 H           4.6878    1.6216   16.2843 H      13  UNL13       0.0521
     76 H           6.4125    1.6651   16.7655 H      13  UNL13       0.0521
     77 H           5.9502    1.0944   15.1408 H      13  UNL13       0.0521
     78 H           5.5974    3.7216   16.1681 H      13  UNL13       0.2090
     79 O           7.8401    5.5490   12.2825 O.3    14  UNL14      -0.3982
     80 C           6.7200    4.6830   12.2825 C.3    14  UNL14       0.0330
     81 H           7.0595    3.6467   12.3542 H      14  UNL14       0.0521
     82 H           6.1469    4.8271   11.3634 H      14  UNL14       0.0521
     83 H           6.0893    4.9178   13.1431 H      14  UNL14       0.0521
     84 H           8.3806    5.3170   11.5082 H      14  UNL14       0.2090
     85 O          10.3531   -0.2520    5.2392 O.3    15  UNL15      -0.3982
     86 C           9.0239   -0.7396    5.2392 C.3    15  UNL15       0.0330
     87 H           8.6193   -0.6972    6.2535 H      15  UNL15       0.0521
     88 H           9.0126   -1.7692    4.8736 H      15  UNL15       0.0521
     89 H           8.4163   -0.1147    4.5805 H      15  UNL15       0.0521
     90 H          10.8679   -0.8259    5.8318 H      15  UNL15       0.2090
     91 O          10.1916    0.5982    0.8691 O.3    16  UNL16      -0.3982
     92 C           9.9597    0.5982    2.2658 C.3    16  UNL16       0.0330
     93 H           9.9706   -0.4293    2.6379 H      16  UNL16       0.0521
     94 H           8.9931    1.0627    2.4755 H      16  UNL16       0.0521
     95 H          10.7505    1.1698    2.7572 H      16  UNL16       0.0521
     96 H           9.4746    0.0840    0.4604 H      16  UNL16       0.2090
     97 O           9.5941    3.1564    5.6546 O.3    17  UNL17      -0.3982
     98 C           8.5563    4.1195    5.6546 C.3    17  UNL17       0.0330
     99 H           7.7655    3.8043    6.3398 H      17  UNL17       0.0521
    100 H           8.1562    4.2252    4.6433 H      17  UNL17       0.0521
    101 H           8.9616    5.0785    5.9858 H      17  UNL17       0.0521
    102 H           9.2047    2.3168    5.3566 H      17  UNL17       0.2090
    103 O          10.4716    0.2684   10.4258 O.3    18  UNL18      -0.3982
    104 C          11.1158    0.6910    9.2380 C.3    18  UNL18       0.0330
    105 H          10.6259    1.5904    8.8568 H      18  UNL18       0.0521
    106 H          11.0675   -0.1067    8.4928 H      18  UNL18       0.0521
    107 H          12.1615    0.9151    9.4613 H      18  UNL18       0.0521
    108 H           9.5463    0.0769   10.1964 H      18  UNL18       0.2090
    109 O          11.7290    2.8906   11.6379 O.3    19  UNL19      -0.3982
    110 C          10.7348    2.6201   12.6089 C.3    19  UNL19       0.0330
    111 H           9.7847    3.0561   12.2902 H      19  UNL19       0.0521
    112 H          11.0380    3.0431   13.5697 H      19  UNL19       0.0521
    113 H          10.6212    1.5381   12.7093 H      19  UNL19       0.0521
    114 H          11.8074    3.8575   11.5710 H      19  UNL19       0.2090
    115 O           9.7741    1.2838   17.2476 O.3    20  UNL20      -0.3982
    116 C           9.4628    2.4609   16.5250 C.3    20  UNL20       0.0330
    117 H           8.4352    2.4030   16.1577 H      20  UNL20       0.0521
    118 H          10.1552    2.5686   15.6866 H      20  UNL20       0.0521
    119 H           9.5619    3.3224   17.1895 H      20  UNL20       0.0521
    120 H           9.6775    0.5370   16.6324 H      20  UNL20       0.2090
    121 O          12.3138    3.8932    2.7882 O.3    21  UNL21      -0.3982
    122 C          11.8536    3.4305    1.5318 C.3    21  UNL21       0.0330
    123 H          11.9262    4.2360    0.7968 H      21  UNL21       0.0521
    124 H          10.8167    3.0979    1.6225 H      21  UNL21       0.0521
    125 H          12.4764    2.5916    1.2123 H      21  UNL21       0.0521
    126 H          11.7424    4.6368    3.0455 H      21  UNL21       0.2090
    127 O          12.0063    4.3661    8.9940 O.3    22  UNL22      -0.3982
    128 C          10.5905    4.3661    8.9940 C.3    22  UNL22       0.0330
    129 H          10.2252    3.5971    9.6792 H      22  UNL22       0.0521
    130 H          10.2253    4.1714    7.9827 H      22  UNL22       0.0521
    131 H          10.2352    5.3447    9.3252 H      22  UNL22       0.0521
    132 H          12.2920    3.4857    8.6960 H      22  UNL22       0.2090
    133 O          15.3354   -0.0371    2.7815 O.3    23  UNL23      -0.3982
    134 C          14.2554   -0.0371    1.8660 C.3    23  UNL23       0.0330
    135 H          13.5337   -0.8061    2.1525 H      23  UNL23       0.0521
    136 H          14.6308   -0.2318    0.8584 H      23  UNL23       0.0521
    137 H          13.7702    0.9415    1.8889 H      23  UNL23       0.0521
    138 H          15.7461   -0.9175    2.7389 H      23  UNL23       0.2090
    139 O          13.0080    1.5431    4.4429 O.3    24  UNL24      -0.3982
    140 C          13.1245    1.2777    5.8287 C.3    24  UNL24       0.0330
    141 H          13.6702    2.0919    6.3120 H      24  UNL24       0.0521
    142 H          13.6527    0.3326    5.9764 H      24  UNL24       0.0521
    143 H          12.1241    1.2049    6.2618 H      24  UNL24       0.0521
    144 H          13.9108    1.6021    4.0865 H      24  UNL24       0.2090
    145 O          15.1696    2.7801    8.5142 O.3    25  UNL25      -0.3982
    146 C          14.9208    1.8935    9.5895 C.3    25  UNL25       0.0330
    147 H          14.3500    1.0339    9.2297 H      25  UNL25       0.0521
    148 H          14.3618    2.4145   10.3706 H      25  UNL25       0.0521
    149 H          15.8754    1.5502    9.9951 H      25  UNL25       0.0521
    150 H          14.3049    3.0677    8.1751 H      25  UNL25       0.2090
    151 O          15.5395    0.9863   14.0055 O.3    26  UNL26      -0.3982
    152 C          14.4194    0.9863   13.1395 C.3    26  UNL26       0.0330
    153 H          13.7113    0.2173   13.4581 H      26  UNL26       0.0521
    154 H          14.7491    0.7916   12.1161 H      26  UNL26       0.0521
    155 H          13.9358    1.9649   13.1842 H      26  UNL26       0.0521
    156 H          15.9478    0.1059   13.9445 H      26  UNL26       0.2090
    157 O          14.3678    3.2572   16.4935 O.3    27  UNL27      -0.3982
    158 C          13.0429    2.8620   16.1888 C.3    27  UNL27       0.0330
    159 H          12.3381    3.5081   16.7181 H      27  UNL27       0.0521
    160 H          12.8944    1.8214   16.4871 H      27  UNL27       0.0521
    161 H          12.8826    2.9566   15.1122 H      27  UNL27       0.0521
    162 H          14.4803    3.1627   17.4547 H      27  UNL27       0.2090
    163 O          16.3124    4.9589   11.9701 O.3    28  UNL28      -0.3982
    164 C          15.1924    4.3990   12.6307 C.3    28  UNL28       0.0330
    165 H          15.5227    3.5922   13.2898 H      28  UNL28       0.0521
    166 H          14.4870    4.0135   11.8906 H      28  UNL28       0.0521
    167 H          14.7054    5.1757   13.2249 H      28  UNL28       0.0521
    168 H          16.7237    4.2467   11.4513 H      28  UNL28       0.2090
    169 O          18.4903    3.1623   -1.3030 O.3    29  UNL29      -0.3982
    170 C          17.3702    2.2963   -1.3030 C.3    29  UNL29       0.0330
    171 H          16.4662    2.8682   -1.5268 H      29  UNL29       0.0521
    172 H          17.2787    1.8176   -0.3250 H      29  UNL29       0.0521
    173 H          17.5132    1.5305   -2.0690 H      29  UNL29       0.0521
    174 H          18.3348    3.8305   -0.6139 H      29  UNL29       0.2090
    175 O          18.2372    0.8653    2.6627 O.3    30  UNL30      -0.3982
    176 C          19.0327    0.5735    1.5285 C.3    30  UNL30       0.0330
    177 H          18.4577   -0.0347    0.8257 H      30  UNL30       0.0521
    178 H          19.9314    0.0364    1.8411 H      30  UNL30       0.0521
    179 H          19.3202    1.5104    1.0456 H      30  UNL30       0.0521
    180 H          17.9976    0.0154    3.0700 H      30  UNL30       0.2090
    181 O          18.0440    2.8348    5.2124 O.3    31  UNL31      -0.3982
    182 C          17.2721    1.7458    5.6846 C.3    31  UNL31       0.0330
    183 H          16.4575    2.1195    6.3099 H      31  UNL31       0.0521
    184 H          17.9083    1.0703    6.2617 H      31  UNL31       0.0521
    185 H          16.8553    1.2086    4.8295 H      31  UNL31       0.0521
    186 H          18.4006    3.2920    5.9930 H      31  UNL31       0.2090
    187 O          19.5233    2.5261    9.7976 O.3    32  UNL32      -0.3982
    188 C          18.6745    2.5857    8.6661 C.3    32  UNL32       0.0330
    189 H          17.6895    2.1907    8.9271 H      32  UNL32       0.0521
    190 H          19.1094    2.0008    7.8520 H      32  UNL32       0.0521
    191 H          18.5752    3.6270    8.3508 H      32  UNL32       0.0521
    192 H          19.5923    1.5907   10.0541 H      32  UNL32       0.2090
    193 O          19.7661    2.3786   12.7902 O.3    33  UNL33      -0.3982
    194 C          18.3503    2.3786   12.7902 C.3    33  UNL33       0.0330
    195 H          17.9850    1.4207   13.1687 H      33  UNL33       0.0521
    196 H          17.9851    2.5441   11.7737 H      33  UNL33       0.0521
    197 H          17.9950    3.1833   13.4382 H      33  UNL33       0.0521
    198 H          20.0518    1.6547   12.2073 H      33  UNL33       0.2090
    199 O          17.3168    3.1133   15.8639 O.3    34  UNL34      -0.3982
    200 C          17.7339    1.8068   16.2155 C.3    34  UNL34       0.0330
    201 H          18.1498    1.3073   15.3369 H      34  UNL34       0.0521
    202 H          16.8808    1.2419   16.5991 H      34  UNL34       0.0521
    203 H          18.5010    1.8751   16.9904 H      34  UNL34       0.0521
    204 H          16.6367    3.0204   15.1752 H      34  UNL34       0.2090
    205 O          16.6070    3.6584    1.4165 O.3    35  UNL35      -0.3982
    206 C          15.2778    3.2006    1.5844 C.3    35  UNL35       0.0330
    207 H          14.5874    4.0430    1.4948 H      35  UNL35       0.0521
    208 H          15.1739    2.7333    2.5666 H      35  UNL35       0.0521
    209 H          15.0546    2.4652    0.8079 H      35  UNL35       0.0521
    210 H          16.7761    4.3090    2.1191 H      35  UNL35       0.2090
    211 O          23.2258    1.0928    1.1040 O.3    36  UNL36      -0.3982
    212 C          23.5569   -0.1320    0.4758 C.3    36  UNL36       0.0330
    213 H          22.8411   -0.9015    0.7756 H      36  UNL36       0.0521
    214 H          24.5685   -0.4283    0.7637 H      36  UNL36       0.0521
    215 H          23.5131    0.0011   -0.6076 H      36  UNL36       0.0521
    216 H          23.2733    0.9437    2.0637 H      36  UNL36       0.2090
    217 O          21.3242    3.3969    4.4272 O.3    37  UNL37      -0.3982
    218 C          21.6813    2.1515    3.8562 C.3    37  UNL37       0.0330
    219 H          21.5203    2.1854    2.7759 H      37  UNL37       0.0521
    220 H          21.0751    1.3586    4.3010 H      37  UNL37       0.0521
    221 H          22.7371    1.9573    4.0592 H      37  UNL37       0.0521
    222 H          20.3829    3.5417    4.2309 H      37  UNL37       0.2090
    223 O          22.7043    0.5779    8.3601 O.3    38  UNL38      -0.3982
    224 C          23.6824    1.0504    7.4521 C.3    38  UNL38       0.0330
    225 H          24.1032    1.9881    7.8238 H      38  UNL38       0.0521
    226 H          23.2255    1.2069    6.4719 H      38  UNL38       0.0521
    227 H          24.4771    0.3056    7.3666 H      38  UNL38       0.0521
    228 H          22.0128    1.2593    8.4153 H      38  UNL38       0.2090
    229 O          22.9493    1.4697   12.7250 O.3    39  UNL39      -0.3982
    230 C          23.4338    1.2235   11.4177 C.3    39  UNL39       0.0330
    231 H          23.6693    0.1619   11.3093 H      39  UNL39       0.0521
    232 H          24.3278    1.8260   11.2400 H      39  UNL39       0.0521
    233 H          22.6620    1.4988   10.6950 H      39  UNL39       0.0521
    234 H          23.6552    1.2161   13.3438 H      39  UNL39       0.2090
    235 O          22.5698    1.9810   16.0945 O.3    40  UNL40      -0.3982
    236 C          21.1540    1.9810   16.0945 C.3    40  UNL40       0.0330
    237 H          20.7887    0.9535   16.1662 H      40  UNL40       0.0521
    238 H          20.7888    2.4456   15.1754 H      40  UNL40       0.0521
    239 H          20.7987    2.5526   16.9551 H      40  UNL40       0.0521
    240 H          22.8555    1.4668   15.3203 H      40  UNL40       0.2090
    241 O          23.7409    5.1824    9.1893 O.3    41  UNL41      -0.3982
    242 C          22.6208    4.3164    9.1893 C.3    41  UNL41       0.0330
    243 H          22.8022    3.4846    9.8745 H      41  UNL41       0.0521
    244 H          22.4510    3.9390    8.1780 H      41  UNL41       0.0521
    245 H          21.7412    4.8732    9.5205 H      41  UNL41       0.0521
    246 H          24.5054    4.6607    8.8913 H      41  UNL41       0.2090
    247 O          28.2094    0.5611    3.3300 O.3    42  UNL42      -0.3982
    248 C          27.1646    0.9905    2.4765 C.3    42  UNL42       0.0330
    249 H          26.2342    0.4911    2.7582 H      42  UNL42       0.0521
    250 H          27.4186    0.7534    1.4405 H      42  UNL42       0.0521
    251 H          27.0417    2.0710    2.5811 H      42  UNL42       0.0521
    252 H          28.2949   -0.4007    3.2154 H      42  UNL42       0.2090
    253 O          25.0257    2.8900    4.9282 O.3    43  UNL43      -0.3982
    254 C          26.1719    2.3395    5.5507 C.3    43  UNL43       0.0330
    255 H          25.9508    1.3248    5.8911 H      43  UNL43       0.0521
    256 H          26.4627    2.9644    6.3985 H      43  UNL43       0.0521
    257 H          26.9892    2.3085    4.8264 H      43  UNL43       0.0521
    258 H          24.3178    2.9047    5.5947 H      43  UNL43       0.2090
    259 O          27.7272    3.1163    9.0478 O.3    44  UNL44      -0.3982
    260 C          26.8332    2.0323    9.2212 C.3    44  UNL44       0.0330
    261 H          26.2478    1.8921    8.3091 H      44  UNL44       0.0521
    262 H          26.1696    2.2376   10.0648 H      44  UNL44       0.0521
    263 H          27.4086    1.1263    9.4252 H      44  UNL44       0.0521
    264 H          27.1881    3.9055    8.8685 H      44  UNL44       0.2090
    265 O          26.2473    1.5516   13.2472 O.3    45  UNL45      -0.3982
    266 C          27.4081    1.9774   12.5574 C.3    45  UNL45       0.0330
    267 H          27.6590    1.2503   11.7811 H      45  UNL45       0.0521
    268 H          28.2371    2.0741   13.2627 H      45  UNL45       0.0521
    269 H          27.2109    2.9474   12.0951 H      45  UNL45       0.0521
    270 H          26.4525    0.6891   13.6466 H      45  UNL45       0.2090
    271 O          27.0096    2.5339   16.5325 O.3    46  UNL46      -0.3982
    272 C          25.6804    2.7745   16.1085 C.3    46  UNL46       0.0330
    273 H          25.0726    3.0762   16.9652 H      46  UNL46       0.0521
    274 H          25.2705    1.8668   15.6590 H      46  UNL46       0.0521
    275 H          25.6838    3.5763   15.3665 H      46  UNL46       0.0521
    276 H          26.9747    1.8183   17.1899 H      46  UNL46       0.2090
    277 O          26.3683    4.3683    1.8034 O.3    47  UNL47      -0.3982
    278 C          25.0391    3.8807    1.8034 C.3    47  UNL47       0.0330
    279 H          25.0260    2.8556    2.1818 H      47  UNL47       0.0521
    280 H          24.6393    3.9103    0.7869 H      47  UNL47       0.0521
    281 H          24.4284    4.5138    2.4513 H      47  UNL47       0.0521
    282 H          26.8858    3.7870    1.2204 H      47  UNL47       0.2090
    283 O          30.8057   -0.4374    0.1277 O.3    48  UNL48      -0.3982
    284 C          31.7838    0.3189    0.8174 C.3    48  UNL48       0.0330
    285 H          31.4546    0.4913    1.8451 H      48  UNL48       0.0521
    286 H          31.9346    1.2732    0.3069 H      48  UNL48       0.0521
    287 H          32.7230   -0.2391    0.8267 H      48  UNL48       0.0521
    288 H          29.9842    0.0828    0.1358 H      48  UNL48       0.2090
    289 O          31.8429    3.1258    5.3628 O.3    49  UNL49      -0.3982
    290 C          30.4568    3.1754    5.0785 C.3    49  UNL49       0.0330
    291 H          29.8934    3.2183    6.0139 H      49  UNL49       0.0521
    292 H          30.1692    2.2890    4.5078 H      49  UNL49       0.0521
    293 H          30.2470    4.0702    4.4879 H      49  UNL49       0.0521
    294 H          31.9984    2.3219    5.8873 H      49  UNL49       0.2090
    295 O          30.8069    2.8059    9.1096 O.3    50  UNL50      -0.3982
    296 C          30.5750    1.4093    9.1096 C.3    50  UNL50       0.0330
    297 H          29.5234    1.2136    8.8859 H      50  UNL50       0.0521
    298 H          30.8335    0.9961   10.0876 H      50  UNL50       0.0521
    299 H          31.2007    0.9452    8.3436 H      50  UNL50       0.0521
    300 H          30.2385    3.1899    9.7988 H      50  UNL50       0.2090
    301 O          30.5648    1.1044   12.6832 O.3    51  UNL51      -0.3982
    302 C          31.1331    2.3650   12.3790 C.3    51  UNL51       0.0330
    303 H          31.8612    2.2522   11.5718 H      51  UNL51       0.0521
    304 H          31.6199    2.7706   13.2692 H      51  UNL51       0.0521
    305 H          30.3397    3.0444   12.0588 H      51  UNL51       0.0521
    306 H          31.2922    0.5234   12.9641 H      51  UNL51       0.2090
    307 O          32.2241    1.8390   15.7817 O.3    52  UNL52      -0.3982
    308 C          30.8083    1.8390   15.7817 C.3    52  UNL52       0.0330
    309 H          30.4430    2.0100   16.7974 H      52  UNL52       0.0521
    310 H          30.4431    0.8792   15.4084 H      52  UNL52       0.0521
    311 H          30.4530    2.6402   15.1293 H      52  UNL52       0.0521
    312 H          32.5098    1.1183   16.3685 H      52  UNL52       0.2090
    313 O          29.8928    2.9124    0.4445 O.3    53  UNL53      -0.3982
    314 C          30.7401    3.4649    1.4351 C.3    53  UNL53       0.0330
    315 H          30.4097    4.4789    1.6741 H      53  UNL53       0.0521
    316 H          31.7688    3.4827    1.0672 H      53  UNL53       0.0521
    317 H          30.6873    2.8456    2.3335 H      53  UNL53       0.0521
    318 H          29.9605    3.4828   -0.3400 H      53  UNL53       0.2090
    319 O          34.9971    2.7350    2.2086 O.3    54  UNL54      -0.3982
    320 C          35.3120    1.3628    2.0586 C.3    54  UNL54       0.0330
    321 H          35.5639    0.9372    3.0331 H      54  UNL54       0.0521
    322 H          36.1556    1.2546    1.3727 H      54  UNL54       0.0521
    323 H          34.4433    0.8416    1.6494 H      54  UNL54       0.0521
    324 H          35.7861    3.1710    2.5731 H      54  UNL54       0.2090
    325 O          36.0460    2.4360    5.0882 O.3    55  UNL55      -0.3982
    326 C          34.7361    2.0010    5.4034 C.3    55  UNL55       0.0330
    327 H          34.3032    2.6626    6.1579 H      55  UNL55       0.0521
    328 H          34.7724    0.9759    5.7800 H      55  UNL55       0.0521
    329 H          34.1238    2.0332    4.4992 H      55  UNL55       0.0521
    330 H          36.5655    2.3966    5.9092 H      55  UNL55       0.2090
    331 O          33.9802    0.1740   10.1423 O.3    56  UNL56      -0.3982
    332 C          34.6265    0.7219    9.0080 C.3    56  UNL56       0.0330
    333 H          34.8718   -0.0783    8.3053 H      56  UNL56       0.0521
    334 H          35.5372    1.2386    9.3206 H      56  UNL56       0.0521
    335 H          33.9536    1.4343    8.5251 H      56  UNL56       0.0521
    336 H          34.6012   -0.4538   10.5495 H      56  UNL56       0.2090
    337 O          36.2330    0.9277   12.7748 O.3    57  UNL57      -0.3982
    338 C          36.1205    2.2232   12.2151 C.3    57  UNL57       0.0330
    339 H          35.1237    2.6232   12.4173 H      57  UNL57       0.0521
    340 H          36.2922    2.1716   11.1372 H      57  UNL57       0.0521
    341 H          36.8709    2.8735   12.6707 H      57  UNL57       0.0521
    342 H          35.5551    0.3737   12.3516 H      57  UNL57       0.2090
    343 O          35.1359    1.4413   16.5571 O.3    58  UNL58      -0.3982
    344 C          35.2764    2.8483   16.4855 C.3    58  UNL58       0.0330
    345 H          35.9679    3.1058   15.6794 H      58  UNL58       0.0521
    346 H          35.6539    3.2266   17.4386 H      58  UNL58       0.0521
    347 H          34.2997    3.2929   16.2807 H      58  UNL58       0.0521
    348 H          36.0180    1.0750   16.7397 H      58  UNL58       0.2090
    349 O          36.0427    4.1747    9.4323 O.3    59  UNL59      -0.3982
    350 C          34.7135    4.1747    8.9447 C.3    59  UNL59       0.0330
    351 H          34.1346    3.4057    9.4622 H      59  UNL59       0.0521
    352 H          34.7189    3.9800    7.8695 H      59  UNL59       0.0521
    353 H          34.2659    5.1533    9.1333 H      59  UNL59       0.0521
    354 H          36.4136    3.2943    9.2509 H      59  UNL59       0.2090
@<TRIPOS>BOND
     1     1     2    1
     2     1     6    1
     3     2     3    1
     4     2     4    1
     5     2     5    1
     6     7     8    1
     7     7    12    1
     8     8     9    1
     9     8    10    1
    10     8    11    1
    11    13    14    1
    12    13    18    1
    13    14    15    1
    14    14    16    1
    15    14    17    1
    16    19    20    1
    17    19    24    1
    18    20    21    1
    19    20    22    1
    20    20    23    1
    21    25    26    1
    22    25    30    1
    23    26    27    1
    24    26    28    1
    25    26    29    1
    26    31    32    1
    27    31    36    1
    28    32    33    1
    29    32    34    1
    30    32    35    1
    31    37    38    1
    32    37    42    1
    33    38    39    1
    34    38    40    1
    35    38    41    1
    36    43    44    1
    37    43    48    1
    38    44    45    1
    39    44    46    1
    40    44    47    1
    41    49    50    1
    42    49    54    1
    43    50    51    1
    44    50    52    1
    45    50    53    1
    46    55    56    1
    47    55    60    1
    48    56    57    1
    49    56    58    1
    50    56    59    1
    51    61    62    1
    52    61    66    1
    53    62    63    1
    54    62    64    1
    55    62    65    1
    56    67    68    1
    57    67    72    1
    58    68    69    1
    59    68    70    1
    60    68    71    1
    61    73    74    1
    62    73    78    1
    63    74    75    1
    64    74    76    1
    65    74    77    1
    66    79    80    1
    67    79    84    1
    68    80    81    1
    69    80    82    1
    70    80    83    1
    71    85    86    1
    72    85    90    1
    73    86    87    1
    74    86    88    1
    75    86    89    1
    76    91    92    1
    77    91    96    1
    78    92    93    1
    79    92    94    1
    80    92    95    1
    81    97    98    1
    82    97   102    1
    83    98    99    1
    84    98   100    1
    85    98   101    1
    86   103   104    1
    87   103   108    1
    88   104   105    1
    89   104   106    1
    90   104   107    1
    91   109   110    1
    92   109   114    1
    93   110   111    1
    94   110   112    1
    95   110   113    1
    96   115   116    1
    97   115   120    1
    98   116   117    1
    99   116   118    1
   100   116   119    1
   101   121   122    1
   102   121   126    1
   103   122   123    1
   104   122   124    1
   105   122   125    1
   106   127   128    1
   107   127   132    1
   108   128   129    1
   109   128   130    1
   110   128   131    1
   111   133   134    1
   112   133   138    1
   113   134   135    1
   114   134   136    1
   115   134   137    1
   116   139   140    1
   117   139   144    1
   118   140   141    1
   119   140   142    1
   120   140   143    1
   121   145   146    1
   122   145   150    1
   123   146   147    1
   124   146   148    1
   125   146   149    1
   126   151   152    1
   127   151   156    1
   128   152   153    1
   129   152   154    1
   130   152   155    1
   131   157   158    1
   132   157   162    1
   133   158   159    1
   134   158   160    1
   135   158   161    1
   136   163   164    1
   137   163   168    1
   138   164   165    1
   139   164   166    1
   140   164   167    1
   141   169   170    1
   142   169   174    1
   143   170   171    1
   144   170   172    1
   145   170   173    1
   146   175   176    1
   147   175   180    1
   148   176   177    1
   149   176   178    1
   150   176   179    1
   151   181   182    1
   152   181   186    1
   153   182   183    1
   154   182   184    1
   155   182   185    1
   156   187   188    1
   157   187   192    1
   158   188   189    1
   159   188   190    1
   160   188   191    1
   161   193   194    1
   162   193   198    1
   163   194   195    1
   164   194   196    1
   165   194   197    1
   166   199   200    1
   167   199   204    1
   168   200   201    1
   169   200   202    1
   170   200   203    1
   171   205   206    1
   172   205   210    1
   173   206   207    1
   174   206   208    1
   175   206   209    1
   176   211   212    1
   177   211   216    1
   178   212   213    1
   179   212   214    1
   180   212   215    1
   181   217   218    1
   182   217   222    1
   183   218   219    1
   184   218   220    1
   185   218   221    1
   186   223   224    1
   187   223   228    1
   188   224   225    1
   189   224   226    1
   190   224   227    1
   191   229   230    1
   192   229   234    1
   193   230   231    1
   194   230   232    1
   195   230   233    1
   196   235   236    1
   197   235   240    1
   198   236   237    1
   199   236   238    1
   200   236   239    1
   201   241   242    1
   202   241   246    1
   203   242   243    1
   204   242   244    1
   205   242   245    1
   206   247   248    1
   207   247   252    1
   208   248   249    1
   209   248   250    1
   210   248   251    1
   211   253   254    1
   212   253   258    1
   213   254   255    1
   214   254   256    1
   215   254   257    1
   216   259   260    1
   217   259   264    1
   218   260   261    1
   219   260   262    1
   220   260   263    1
   221   265   266    1
   222   265   270    1
   223   266   267    1
   224   266   268    1
   225   266   269    1
   226   271   272    1
   227   271   276    1
   228   272   273    1
   229   272   274    1
   230   272   275    1
   231   277   278    1
   232   277   282    1
   233   278   279    1
   234   278   280    1
   235   278   281    1
   236   283   284    1
   237   283   288    1
   238   284   285    1
   239   284   286    1
   240   284   287    1
   241   289   290    1
   242   289   294    1
   243   290   291    1
   244   290   292    1
   245   290   293    1
   246   295   296    1
   247   295   300    1
   248   296   297    1
   249   296   298    1
   250   296   299    1
   251   301   302    1
   252   301   306    1
   253   302   303    1
   254   302   304    1
   255   302   305    1
   256   307   308    1
   257   307   312    1
   258   308   309    1
   259   308   310    1
   260   308   311    1
   261   313   314    1
   262   313   318    1
   263   314   315    1
   264   314   316    1
   265   314   317    1
   266   319   320    1
   267   319   324    1
   268   320   321    1
   269   320   322    1
   270   320   323    1
   271   325   326    1
   272   325   330    1
   273   326   327    1
   274   326   328    1
   275   326   329    1
   276   331   332    1
   277   331   336    1
   278   332   333    1
   279   332   334    1
   280   332   335    1
   281   337   338    1
   282   337   342    1
   283   338   339    1
   284   338   340    1
   285   338   341    1
   286   343   344    1
   287   343   348    1
   288   344   345    1
   289   344   346    1
   290   344   347    1
   291   349   350    1
   292   349   354    1
   293   350   351    1
   294   350   352    1
   295   350   353    1
