@<TRIPOS>MOLECULE
*****
 5184 4320 0 0 0
SMALL
GASTEIGER

@<TRIPOS>ATOM
      1 O          -1.2661   -1.9744   -0.2044 O.3     1  UNL1       -0.3982
      2 C          -1.5462   -1.4133   -1.4738 C.3     1  UNL1        0.0330
      3 H          -0.6571   -1.4781   -2.1060 H       1  UNL1        0.0521
      4 H          -1.8456   -0.3693   -1.3536 H       1  UNL1        0.0521
      5 H          -2.3619   -1.9729   -1.9375 H       1  UNL1        0.0521
      6 H          -0.5390   -1.4575    0.1823 H       1  UNL1        0.2090
      7 O          -0.5870   -1.1458    2.4186 O.3     2  UNL2       -0.3982
      8 C          -2.0018   -1.0978    2.4449 C.3     2  UNL2        0.0330
      9 H          -2.3857   -1.9497    3.0116 H       2  UNL2        0.0521
     10 H          -2.3871   -1.1230    1.4227 H       2  UNL2        0.0521
     11 H          -2.3168   -0.1699    2.9279 H       2  UNL2        0.0521
     12 H          -0.3375   -1.9794    1.9846 H       2  UNL2        0.2090
     13 O          -0.6001   -1.1004    6.2257 O.3     3  UNL3       -0.3982
     14 C          -2.0128   -1.1119    6.1337 C.3     3  UNL3        0.0330
     15 H          -2.4066   -1.9798    6.6686 H       3  UNL3        0.0521
     16 H          -2.3101   -1.1525    5.0830 H       3  UNL3        0.0521
     17 H          -2.4059   -0.1985    6.5863 H       3  UNL3        0.0521
     18 H          -0.2804   -1.9224    5.8163 H       3  UNL3        0.2090
     19 O          -0.5974   -1.0616    9.2667 O.3     4  UNL4       -0.3982
     20 C          -2.0113   -1.1021    9.3292 C.3     4  UNL4        0.0330
     21 H          -2.3219   -1.6861   10.1991 H       4  UNL4        0.0521
     22 H          -2.4044   -1.5533    8.4149 H       4  UNL4        0.0521
     23 H          -2.3922   -0.0825    9.4226 H       4  UNL4        0.0521
     24 H          -0.2886   -1.9799    9.1842 H       4  UNL4        0.2090
     25 O          -1.1911    1.0358   11.2999 O.3     5  UNL5       -0.3982
     26 C          -1.3527    0.3348   12.5193 C.3     5  UNL5        0.0330
     27 H          -0.6521    0.7259   13.2611 H       5  UNL5        0.0521
     28 H          -1.1697   -0.7300   12.3554 H       5  UNL5        0.0521
     29 H          -2.3753    0.4756   12.8772 H       5  UNL5        0.0521
     30 H          -0.2751    0.8923   11.0070 H       5  UNL5        0.2090
     31 O          -0.5988   -1.0576   14.8896 O.3     6  UNL6       -0.3982
     32 C          -2.0131   -1.1215   14.9049 C.3     6  UNL6        0.0330
     33 H          -2.3337   -1.9753   15.5071 H       6  UNL6        0.0521
     34 H          -2.3852   -1.2228   13.8825 H       6  UNL6        0.0521
     35 H          -2.4056   -0.2011   15.3436 H       6  UNL6        0.0521
     36 H          -0.2796   -1.8871   14.4953 H       6  UNL6        0.2090
     37 O          -0.5885   -1.1240   18.0871 O.3     7  UNL7       -0.3982
     38 C          -2.0033   -1.1062   18.1395 C.3     7  UNL7        0.0330
     39 H          -2.3592   -1.9762   18.6969 H       7  UNL7        0.0521
     40 H          -2.4066   -1.1208   17.1241 H       7  UNL7        0.0521
     41 H          -2.3286   -0.1941   18.6453 H       7  UNL7        0.0521
     42 H          -0.3298   -1.9442   17.6333 H       7  UNL7        0.2090
     43 O          -0.5998   -0.2285   21.8477 O.3     8  UNL8       -0.3982
     44 C          -2.0127   -0.1854   21.7674 C.3     8  UNL8        0.0330
     45 H          -2.3111    0.2419   20.8068 H       8  UNL8        0.0521
     46 H          -2.4066    0.4214   22.5863 H       8  UNL8        0.0521
     47 H          -2.4044   -1.2020   21.8489 H       8  UNL8        0.0521
     48 H          -0.2813    0.6871   21.7725 H       8  UNL8        0.2090
     49 O          -0.5910   -1.1000   24.5988 O.3     9  UNL9       -0.3982
     50 C          -2.0059   -1.1000   24.6498 C.3     9  UNL9        0.0330
     51 H          -2.3463   -1.8690   25.3477 H       9  UNL9        0.0521
     52 H          -2.4073   -1.2947   23.6523 H       9  UNL9        0.0521
     53 H          -2.3491   -0.1214   24.9935 H       9  UNL9        0.0521
     54 H          -0.3163   -1.9804   24.2907 H       9  UNL9        0.2090
     55 O          -0.5860   -1.1506   27.9426 O.3    10  UNL10      -0.3982
     56 C          -2.0000   -1.1006   27.9945 C.3    10  UNL10       0.0330
     57 H          -2.3772   -1.9763   28.5286 H      10  UNL10       0.0521
     58 H          -2.4022   -1.0789   26.9787 H      10  UNL10       0.0521
     59 H          -2.3043   -0.1946   28.5239 H      10  UNL10       0.0521
     60 H          -0.3462   -1.9644   27.4676 H      10  UNL10       0.2090
     61 O          -0.5924   -1.1263   30.9241 O.3    11  UNL11      -0.3982
     62 C          -2.0071   -1.0994   30.9710 C.3    11  UNL11       0.0330
     63 H          -2.3399   -1.1823   32.0086 H      11  UNL11       0.0521
     64 H          -2.4078   -1.9275   30.3813 H      11  UNL11       0.0521
     65 H          -2.3586   -0.1534   30.5524 H      11  UNL11       0.0521
     66 H          -0.3101   -1.9767   31.3018 H      11  UNL11       0.2090
     67 O          -1.7563    1.0208   33.2707 O.3    12  UNL12      -0.3982
     68 C          -1.4410    0.0007   34.2005 C.3    12  UNL12       0.0330
     69 H          -0.7511    0.3921   34.9522 H      12  UNL12       0.0521
     70 H          -0.9854   -0.8430   33.6764 H      12  UNL12       0.0521
     71 H          -2.3600   -0.3305   34.6898 H      12  UNL12       0.0521
     72 H          -0.9220    1.2943   32.8528 H      12  UNL12       0.2090
     73 O           1.2838    1.4206   -0.1194 O.3    13  UNL13      -0.3982
     74 C           0.4005    1.2742   -1.2162 C.3    13  UNL13       0.0330
     75 H           0.5991    0.3255   -1.7210 H      13  UNL13       0.0521
     76 H           0.5407    2.1055   -1.9114 H      13  UNL13       0.0521
     77 H          -0.6278    1.2800   -0.8475 H      13  UNL13       0.0521
     78 H           2.1878    1.4119   -0.4774 H      13  UNL13       0.2090
     79 O          -0.3207    3.5220    0.5279 O.3    14  UNL14      -0.3982
     80 C          -1.3619    2.9197    1.2747 C.3    14  UNL14       0.0330
     81 H          -1.3110    1.8338    1.1624 H      14  UNL14       0.0521
     82 H          -2.3270    3.2887    0.9192 H      14  UNL14       0.0521
     83 H          -1.2402    3.1809    2.3285 H      14  UNL14       0.0521
     84 H          -0.4552    3.2726   -0.4023 H      14  UNL14       0.2090
     85 O          -1.4836    3.4069    4.8498 O.3    15  UNL15      -0.3982
     86 C          -1.7954    2.0427    4.6344 C.3    15  UNL15       0.0330
     87 H          -2.3394    1.9367    3.6925 H      15  UNL15       0.0521
     88 H          -2.4041    1.6720    5.4628 H      15  UNL15       0.0521
     89 H          -0.8666    1.4698    4.5828 H      15  UNL15       0.0521
     90 H          -2.3267    3.8896    4.8911 H      15  UNL15       0.2090
     91 O          -1.6545    3.1135    7.9834 O.3    16  UNL16      -0.3982
     92 C          -1.4399    2.3302    9.1431 C.3    16  UNL16       0.0330
     93 H          -0.8886    1.4253    8.8758 H      16  UNL16       0.0521
     94 H          -2.4021    2.0654    9.5881 H      16  UNL16       0.0521
     95 H          -0.8563    2.9110    9.8612 H      16  UNL16       0.0521
     96 H          -2.1744    2.5722    7.3652 H      16  UNL16       0.2090
     97 O          -0.5993    3.0562   12.4508 O.3    17  UNL17      -0.3982
     98 C          -2.0126    3.0696   12.3672 C.3    17  UNL17       0.0330
     99 H          -2.3159    3.1329   11.3192 H      17  UNL17       0.0521
    100 H          -2.4032    3.9254   12.9230 H      17  UNL17       0.0521
    101 H          -2.4030    2.1466   12.8021 H      17  UNL17       0.0521
    102 H          -0.2819    3.8869   12.0575 H      17  UNL17       0.2090
    103 O          -0.6000    3.2007   15.4705 O.3    18  UNL18      -0.3982
    104 C          -2.0131    3.1398   15.4072 C.3    18  UNL18       0.0330
    105 H          -2.4017    2.7039   16.3309 H      18  UNL18       0.0521
    106 H          -2.3144    2.5326   14.5501 H      18  UNL18       0.0521
    107 H          -2.4075    4.1520   15.2904 H      18  UNL18       0.0521
    108 H          -0.2791    2.2887   15.5740 H      18  UNL18       0.2090
    109 O          -0.8272    1.8609   18.1050 O.3    19  UNL19      -0.3982
    110 C          -1.5097    3.0237   18.5369 C.3    19  UNL19       0.0330
    111 H          -2.4023    2.7362   19.0980 H      19  UNL19       0.0521
    112 H          -1.7899    3.6261   17.6694 H      19  UNL19       0.0521
    113 H          -0.8475    3.6050   19.1828 H      19  UNL19       0.0521
    114 H          -1.4392    1.3658   17.5342 H      19  UNL19       0.2090
    115 O          -2.4078    2.5679   21.4346 O.3    20  UNL20      -0.3982
    116 C          -1.2972    3.2403   21.9993 C.3    20  UNL20       0.0330
    117 H          -0.7775    3.8047   21.2210 H      20  UNL20       0.0521
    118 H          -0.6193    2.5113   22.4498 H      20  UNL20       0.0521
    119 H          -1.6527    3.9287   22.7696 H      20  UNL20       0.0521
    120 H          -2.0613    1.9647   20.7551 H      20  UNL20       0.2090
    121 O          -0.5994    2.4994   24.8056 O.3    21  UNL21      -0.3982
    122 C          -2.0126    2.4288   24.8530 C.3    21  UNL21       0.0330
    123 H          -2.3158    1.6242   25.5277 H      21  UNL21       0.0521
    124 H          -2.4029    2.2435   23.8494 H      21  UNL21       0.0521
    125 H          -2.4036    3.3791   25.2239 H      21  UNL21       0.0521
    126 H          -0.2815    1.6427   24.4730 H      21  UNL21       0.2090
    127 O          -0.6199    1.6112   28.2846 O.3    22  UNL22      -0.3982
    128 C          -1.4677    2.5464   27.6435 C.3    22  UNL22       0.0330
    129 H          -1.6638    3.3838   28.3178 H      22  UNL22       0.0521
    130 H          -2.4062    2.0594   27.3677 H      22  UNL22       0.0521
    131 H          -0.9726    2.9153   26.7423 H      22  UNL22       0.0521
    132 H          -1.0857    1.3016   29.0801 H      22  UNL22       0.2090
    133 O          -0.5984    3.1176   30.9319 O.3    23  UNL23      -0.3982
    134 C          -2.0128    3.1447   30.9887 C.3    23  UNL23       0.0330
    135 H          -2.3352    3.9050   31.7045 H      23  UNL23       0.0521
    136 H          -2.3851    2.1629   31.2914 H      23  UNL23       0.0521
    137 H          -2.4035    3.3906   29.9985 H      23  UNL23       0.0521
    138 H          -0.2809    2.8969   31.8241 H      23  UNL23       0.2090
    139 O          -0.5991    3.1678   35.3454 O.3    24  UNL24      -0.3982
    140 C          -2.0129    3.0936   35.3478 C.3    24  UNL24       0.0330
    141 H          -2.3253    2.0850   35.6296 H      24  UNL24       0.0521
    142 H          -2.3932    3.3398   34.3534 H      24  UNL24       0.0521
    143 H          -2.4051    3.8102   36.0732 H      24  UNL24       0.0521
    144 H          -0.2802    2.5213   34.6928 H      24  UNL24       0.2090
    145 O          -0.4517    5.7211   -1.2510 O.3    25  UNL25      -0.3982
    146 C          -1.8320    5.4283   -1.1344 C.3    25  UNL25       0.0330
    147 H          -2.0239    4.9506   -0.1704 H      25  UNL25       0.0521
    148 H          -2.1346    4.7651   -1.9484 H      25  UNL25       0.0521
    149 H          -2.3993    6.3599   -1.1963 H      25  UNL25       0.0521
    150 H           0.0256    4.8760   -1.1925 H      25  UNL25       0.2090
    151 O          -0.6573    5.4901    2.4093 O.3    26  UNL26      -0.3982
    152 C          -1.5723    6.1630    3.2546 C.3    26  UNL26       0.0330
    153 H          -2.2483    5.4368    3.7128 H      26  UNL26       0.0521
    154 H          -2.1424    6.8896    2.6707 H      26  UNL26       0.0521
    155 H          -1.0159    6.6839    4.0374 H      26  UNL26       0.0521
    156 H          -1.1798    5.0376    1.7254 H      26  UNL26       0.2090
    157 O          -0.5979    6.3118    6.2641 O.3    27  UNL27      -0.3982
    158 C          -2.0114    6.3478    6.1918 C.3    27  UNL27       0.0330
    159 H          -2.4078    5.3334    6.2827 H      27  UNL27       0.0521
    160 H          -2.3173    6.7859    5.2386 H      27  UNL27       0.0521
    161 H          -2.3935    6.9608    7.0114 H      27  UNL27       0.0521
    162 H          -0.2880    5.7611    5.5249 H      27  UNL27       0.2090
    163 O          -0.5916    5.7816    9.2723 O.3    28  UNL28      -0.3982
    164 C          -2.0066    5.8025    9.2313 C.3    28  UNL28       0.0330
    165 H          -2.4038    5.0905    9.9590 H      28  UNL28       0.0521
    166 H          -2.3468    5.5408    8.2264 H      28  UNL28       0.0521
    167 H          -2.3545    6.8076    9.4810 H      28  UNL28       0.0521
    168 H          -0.3126    4.8778    9.0466 H      28  UNL28       0.2090
    169 O          -0.5903    6.3326   12.2085 O.3    29  UNL29      -0.3982
    170 C          -2.0053    6.3755   12.2240 C.3    29  UNL29       0.0330
    171 H          -2.3533    6.5880   13.2379 H      29  UNL29       0.0521
    172 H          -2.4035    5.4163   11.8842 H      29  UNL29       0.0521
    173 H          -2.3442    7.1670   11.5514 H      29  UNL29       0.0521
    174 H          -0.3194    5.6215   12.8139 H      29  UNL29       0.2090
    175 O           0.3711    5.6474   15.5526 O.3    30  UNL30      -0.3982
    176 C          -0.8130    6.4140   15.4312 C.3    30  UNL30       0.0330
    177 H          -1.6830    5.7574   15.5105 H      30  UNL30       0.0521
    178 H          -0.8179    6.9282   14.4671 H      30  UNL30       0.0521
    179 H          -0.8421    7.1526   16.2357 H      30  UNL30       0.0521
    180 H           0.3690    5.0013   14.8259 H      30  UNL30       0.2090
    181 O          -0.5995    5.6430   17.9105 O.3    31  UNL31      -0.3982
    182 C          -2.0126    5.5892   17.9798 C.3    31  UNL31       0.0330
    183 H          -2.3136    5.0173   18.8611 H      31  UNL31       0.0521
    184 H          -2.4050    5.1184   17.0752 H      31  UNL31       0.0521
    185 H          -2.4034    6.6065   18.0574 H      31  UNL31       0.0521
    186 H          -0.2818    4.7265   17.8424 H      31  UNL31       0.2090
    187 O          -0.9969    6.0639   20.3665 O.3    32  UNL32      -0.3982
    188 C          -1.3479    6.1718   21.7338 C.3    32  UNL32       0.0330
    189 H          -2.3978    5.8978   21.8642 H      32  UNL32       0.0521
    190 H          -1.1830    7.1973   22.0733 H      32  UNL32       0.0521
    191 H          -0.7213    5.4923   22.3163 H      32  UNL32       0.0521
    192 H          -1.5691    6.6778   19.8753 H      32  UNL32       0.2090
    193 O          -0.9958    5.4336   25.3803 O.3    33  UNL33      -0.3982
    194 C          -1.7080    6.3165   24.5330 C.3    33  UNL33       0.0330
    195 H          -2.3308    6.9803   25.1378 H      33  UNL33       0.0521
    196 H          -2.3320    5.7396   23.8461 H      33  UNL33       0.0521
    197 H          -0.9938    6.9123   23.9599 H      33  UNL33       0.0521
    198 H          -1.6554    4.9186   25.8755 H      33  UNL33       0.2090
    199 O          -0.5446    6.2316   28.2710 O.3    34  UNL34      -0.3982
    200 C          -1.9189    6.3639   27.9575 C.3    34  UNL34       0.0330
    201 H          -2.3800    5.3742   27.9111 H      34  UNL34       0.0521
    202 H          -2.0270    6.8733   26.9969 H      34  UNL34       0.0521
    203 H          -2.4060    6.9542   28.7373 H      34  UNL34       0.0521
    204 H          -0.1394    5.7037   27.5620 H      34  UNL34       0.2090
    205 O          -0.5836    5.9085   30.9855 O.3    35  UNL35      -0.3982
    206 C          -1.9952    6.0110   30.9471 C.3    35  UNL35       0.0330
    207 H          -2.3918    5.9761   31.9648 H      35  UNL35       0.0521
    208 H          -2.4051    5.1881   30.3565 H      35  UNL35       0.0521
    209 H          -2.2699    6.9614   30.4837 H      35  UNL35       0.0521
    210 H          -0.3703    5.0558   31.4015 H      35  UNL35       0.2090
    211 O          -0.5837    6.4024   35.2888 O.3    36  UNL36      -0.3982
    212 C          -1.9955    6.4955   35.3420 C.3    36  UNL36       0.0330
    213 H          -2.4052    5.5843   35.7849 H      36  UNL36       0.0521
    214 H          -2.3907    6.6324   34.3326 H      36  UNL36       0.0521
    215 H          -2.2719    7.3539   35.9587 H      36  UNL36       0.0521
    216 H          -0.3688    5.6324   34.7353 H      36  UNL36       0.2090
    217 O          -1.9140    8.6240   -1.2820 O.3    37  UNL37      -0.3982
    218 C          -1.3550    8.3410   -0.0124 C.3    37  UNL37       0.0330
    219 H          -1.2410    9.2700    0.5518 H      37  UNL37       0.0521
    220 H          -0.3830    7.8585   -0.1407 H      37  UNL37       0.0521
    221 H          -2.0246    7.6684    0.5288 H      37  UNL37       0.0521
    222 H          -1.2982    9.2222   -1.7384 H      37  UNL37       0.2090
    223 O          -0.5948    9.6402    3.0609 O.3    38  UNL38      -0.3982
    224 C          -2.0092    9.5846    3.0896 C.3    38  UNL38       0.0330
    225 H          -2.3303    8.5627    3.3062 H      38  UNL38       0.0521
    226 H          -2.4069    9.9059    2.1239 H      38  UNL38       0.0521
    227 H          -2.3753   10.2529    3.8725 H      38  UNL38       0.0521
    228 H          -0.2994    9.0377    2.3573 H      38  UNL38       0.2090
    229 O          -0.4149    9.1075    5.1489 O.3    39  UNL39      -0.3982
    230 C          -0.6863    9.0197    6.5357 C.3    39  UNL39       0.0330
    231 H          -0.0838    8.2213    6.9760 H      39  UNL39       0.0521
    232 H          -1.7488    8.8150    6.6876 H      39  UNL39       0.0521
    233 H          -0.4294    9.9703    7.0089 H      39  UNL39       0.0521
    234 H          -0.6526    8.2502    4.7564 H      39  UNL39       0.2090
    235 O          -0.4451    8.9305    9.2100 O.3    40  UNL40      -0.3982
    236 C          -1.7086    9.5623    9.3046 C.3    40  UNL40       0.0330
    237 H          -2.4077    8.9046    9.8270 H      40  UNL40       0.0521
    238 H          -2.0814    9.7853    8.3020 H      40  UNL40       0.0521
    239 H          -1.5992   10.4934    9.8656 H      40  UNL40       0.0521
    240 H          -0.5739    8.1081    8.7075 H      40  UNL40       0.2090
    241 O          -0.4580   10.1675   11.4897 O.3    41  UNL41      -0.3982
    242 C          -0.8980    9.2696   12.4921 C.3    41  UNL41       0.0330
    243 H          -1.9898    9.2206   12.4848 H      41  UNL41       0.0521
    244 H          -0.5444    9.6102   13.4682 H      41  UNL41       0.0521
    245 H          -0.4895    8.2778   12.2847 H      41  UNL41       0.0521
    246 H          -0.8361   11.0383   11.7003 H      41  UNL41       0.2090
    247 O          -0.5999    9.2880   15.2964 O.3    42  UNL42      -0.3982
    248 C          -2.0131    9.2077   15.3234 C.3    42  UNL42       0.0330
    249 H          -2.3172    8.2864   15.8264 H      42  UNL42       0.0521
    250 H          -2.3993    9.2220   14.3013 H      42  UNL42       0.0521
    251 H          -2.4074   10.0667   15.8715 H      42  UNL42       0.0521
    252 H          -0.2791    8.5133   14.8040 H      42  UNL42       0.2090
    253 O          -0.5985    9.2799   18.6138 O.3    43  UNL43      -0.3982
    254 C          -2.0122    9.2094   18.6421 C.3    43  UNL43       0.0330
    255 H          -2.3221    8.2858   19.1374 H      43  UNL43       0.0521
    256 H          -2.3997    9.2353   17.6207 H      43  UNL43       0.0521
    257 H          -2.3997   10.0662   19.1982 H      43  UNL43       0.0521
    258 H          -0.2838    8.5074   18.1141 H      43  UNL43       0.2090
    259 O          -0.5990    9.3197   21.4918 O.3    44  UNL44      -0.3982
    260 C          -2.0134    9.3818   21.4935 C.3    44  UNL44       0.0330
    261 H          -2.3396   10.2944   20.9885 H      44  UNL44       0.0521
    262 H          -2.3781    9.3725   22.5235 H      44  UNL44       0.0521
    263 H          -2.4079    8.5128   20.9618 H      44  UNL44       0.0521
    264 H          -0.2780   10.1030   21.9703 H      44  UNL44       0.2090
    265 O          -0.5161    9.0042   23.8745 O.3    45  UNL45      -0.3982
    266 C          -1.6074    9.6115   24.5415 C.3    45  UNL45       0.0330
    267 H          -1.9773   10.4508   23.9474 H      45  UNL45       0.0521
    268 H          -1.2853    9.9614   25.5252 H      45  UNL45       0.0521
    269 H          -2.4046    8.8743   24.6625 H      45  UNL45       0.0521
    270 H           0.1749    9.6819   23.7816 H      45  UNL45       0.2090
    271 O          -0.4476    8.5839   27.6407 O.3    46  UNL46      -0.3982
    272 C          -1.5531    9.3052   28.1527 C.3    46  UNL46       0.0330
    273 H          -2.4047    8.6312   28.2737 H      46  UNL46       0.0521
    274 H          -1.8104   10.1151   27.4657 H      46  UNL46       0.0521
    275 H          -1.2835    9.7262   29.1241 H      46  UNL46       0.0521
    276 H          -0.7166    8.2224   26.7790 H      46  UNL46       0.2090
    277 O          -0.5173    8.8982   31.6476 O.3    47  UNL47      -0.3982
    278 C           0.3814    9.8703   31.1455 C.3    47  UNL47       0.0330
    279 H          -0.1656   10.5919   30.5336 H      47  UNL47       0.0521
    280 H           1.1530    9.3798   30.5471 H      47  UNL47       0.0521
    281 H           0.8495   10.3888   31.9855 H      47  UNL47       0.0521
    282 H          -0.9169    8.4550   30.8798 H      47  UNL47       0.2090
    283 O          -1.1620   10.3467   33.8070 O.3    48  UNL48      -0.3982
    284 C          -1.4095    9.1350   34.4961 C.3    48  UNL48       0.0330
    285 H          -1.3347    8.2965   33.7992 H      48  UNL48       0.0521
    286 H          -2.4070    9.1650   34.9410 H      48  UNL48       0.0521
    287 H          -0.6640    9.0169   35.2861 H      48  UNL48       0.0521
    288 H          -1.8386   10.4239   33.1129 H      48  UNL48       0.2090
    289 O          -1.2842   11.9517   -1.9007 O.3    49  UNL49      -0.3982
    290 C          -1.3487   11.5908   -0.5332 C.3    49  UNL49       0.0330
    291 H          -2.2201   10.9533   -0.3643 H      49  UNL49       0.0521
    292 H          -1.4194   12.4927    0.0796 H      49  UNL49       0.0521
    293 H          -0.4419   11.0425   -0.2673 H      49  UNL49       0.0521
    294 H          -2.1016   12.4363   -2.1071 H      49  UNL49       0.2090
    295 O          -0.5957   12.8357    3.1188 O.3    50  UNL50      -0.3982
    296 C          -2.0100   12.8612    3.0587 C.3    50  UNL50       0.0330
    297 H          -2.4054   11.8829    3.3429 H      50  UNL50       0.0521
    298 H          -2.3279   13.1139    2.0442 H      50  UNL50       0.0521
    299 H          -2.3816   13.6179    3.7537 H      50  UNL50       0.0521
    300 H          -0.2953   12.1557    2.4920 H      50  UNL50       0.2090
    301 O          -0.5829   12.1899    6.1212 O.3    51  UNL51      -0.3982
    302 C          -1.9933   12.2912    6.1921 C.3    51  UNL51       0.0330
    303 H          -2.4033   11.3795    6.6339 H      51  UNL51       0.0521
    304 H          -2.3999   12.4372    5.1885 H      51  UNL51       0.0521
    305 H          -2.2571   13.1471    6.8178 H      51  UNL51       0.0521
    306 H          -0.3794   11.4224    5.5600 H      51  UNL51       0.2090
    307 O          -0.5993   12.5358    9.2487 O.3    52  UNL52      -0.3982
    308 C          -2.0133   12.4842    9.1990 C.3    52  UNL52       0.0330
    309 H          -2.3883   11.9142   10.0528 H      52  UNL52       0.0521
    310 H          -2.3289   12.0123    8.2654 H      52  UNL52       0.0521
    311 H          -2.4077   13.5021    9.2417 H      52  UNL52       0.0521
    312 H          -0.2784   11.6187    9.2091 H      52  UNL52       0.2090
    313 O          -0.5224   12.9767   11.6552 O.3    53  UNL53      -0.3982
    314 C          -1.9238   12.9316   11.8519 C.3    53  UNL53       0.0330
    315 H          -2.1625   13.2788   12.8602 H      53  UNL53       0.0521
    316 H          -2.2791   11.9075   11.7140 H      53  UNL53       0.0521
    317 H          -2.4064   13.5839   11.1204 H      53  UNL53       0.0521
    318 H          -0.1218   12.3887   12.3180 H      53  UNL53       0.2090
    319 O          -0.9879   11.5037   14.0016 O.3    54  UNL54      -0.3982
    320 C          -1.4424   12.3294   15.0580 C.3    54  UNL54       0.0330
    321 H          -2.3020   11.8610   15.5439 H      54  UNL54       0.0521
    322 H          -1.7231   13.3082   14.6616 H      54  UNL54       0.0521
    323 H          -0.6367   12.4509   15.7858 H      54  UNL54       0.0521
    324 H          -1.7237   11.4142   13.3721 H      54  UNL54       0.2090
    325 O          -0.9146   11.7804   17.6806 O.3    55  UNL55      -0.3982
    326 C          -1.7446   12.8964   17.9457 C.3    55  UNL55       0.0330
    327 H          -2.4063   12.6684   18.7850 H      55  UNL55       0.0521
    328 H          -2.3343   13.1324   17.0566 H      55  UNL55       0.0521
    329 H          -1.1168   13.7531   18.2019 H      55  UNL55       0.0521
    330 H          -1.4993   11.0365   17.4565 H      55  UNL55       0.2090
    331 O          -0.4885   11.7571   20.7211 O.3    56  UNL56      -0.3982
    332 C          -1.5298   12.5869   21.2026 C.3    56  UNL56       0.0330
    333 H          -2.4057   11.9762   21.4349 H      56  UNL56       0.0521
    334 H          -1.7827   13.3324   20.4447 H      56  UNL56       0.0521
    335 H          -1.1903   13.0930   22.1093 H      56  UNL56       0.0521
    336 H          -0.8189   11.3217   19.9169 H      56  UNL56       0.2090
    337 O          -0.5824   12.4855   24.8108 O.3    57  UNL57      -0.3982
    338 C          -1.9914   12.6075   24.8754 C.3    57  UNL57       0.0330
    339 H          -2.4048   11.7715   25.4451 H      57  UNL57       0.0521
    340 H          -2.4043   12.6125   23.8637 H      57  UNL57       0.0521
    341 H          -2.2443   13.5460   25.3744 H      57  UNL57       0.0521
    342 H          -0.3887   11.6442   24.3634 H      57  UNL57       0.2090
    343 O          -0.5824   12.3831   27.9323 O.3    58  UNL58      -0.3982
    344 C          -1.9914   12.4877   28.0225 C.3    58  UNL58       0.0330
    345 H          -2.4016   11.5587   28.4263 H      58  UNL58       0.0521
    346 H          -2.4075   12.6815   27.0309 H      58  UNL58       0.0521
    347 H          -2.2443   13.3152   28.6895 H      58  UNL58       0.0521
    348 H          -0.3887   11.6411   27.3344 H      58  UNL58       0.2090
    349 O          -0.5829   12.4432   31.0806 O.3    59  UNL59      -0.3982
    350 C          -1.9933   12.4329   31.2042 C.3    59  UNL59       0.0330
    351 H          -2.3999   11.5670   30.6758 H      59  UNL59       0.0521
    352 H          -2.4034   13.3547   30.7846 H      59  UNL59       0.0521
    353 H          -2.2567   12.3681   32.2624 H      59  UNL59       0.0521
    354 H          -0.3797   12.5014   30.1315 H      59  UNL59       0.2090
    355 O          -0.5930   12.8679   35.1404 O.3    60  UNL60      -0.3982
    356 C          -2.0078   12.8227   35.1714 C.3    60  UNL60       0.0330
    357 H          -2.3377   11.7875   35.2890 H      60  UNL60       0.0521
    358 H          -2.4070   13.2403   34.2439 H      60  UNL60       0.0521
    359 H          -2.3637   13.4146   36.0179 H      60  UNL60       0.0521
    360 H          -0.3067   12.3343   34.3796 H      60  UNL60       0.2090
    361 O          -1.8268   16.2770   -1.5469 O.3    61  UNL61      -0.3982
    362 C          -1.4121   15.2289   -0.6901 C.3    61  UNL61       0.0330
    363 H          -0.6401   15.5970   -0.0098 H      61  UNL61       0.0521
    364 H          -1.0219   14.4015   -1.2877 H      61  UNL61       0.0521
    365 H          -2.2710   14.8832   -0.1102 H      61  UNL61       0.0521
    366 H          -1.0441   16.5628   -2.0482 H      61  UNL61       0.2090
    367 O          -0.6069   15.2965    2.5274 O.3    62  UNL62      -0.3982
    368 C          -1.5994   16.0263    3.2251 C.3    62  UNL62       0.0330
    369 H          -2.3124   15.3327    3.6776 H      62  UNL62       0.0521
    370 H          -2.1153   16.6955    2.5323 H      62  UNL62       0.0521
    371 H          -1.1205   16.6166    4.0099 H      62  UNL62       0.0521
    372 H          -1.0615   14.7830    1.8381 H      62  UNL62       0.2090
    373 O          -0.6397   14.8187    5.6769 O.3    63  UNL63      -0.3982
    374 C          -1.5821   15.6603    6.3157 C.3    63  UNL63       0.0330
    375 H          -2.2933   15.0510    6.8790 H      63  UNL63       0.0521
    376 H          -2.1092   16.2542    5.5651 H      63  UNL63       0.0521
    377 H          -1.0549   16.3281    7.0011 H      63  UNL63       0.0521
    378 H          -1.1366   14.2381    5.0757 H      63  UNL63       0.2090
    379 O          -0.6755   15.0377    8.8484 O.3    64  UNL64      -0.3982
    380 C          -1.5729   15.9627    9.4345 C.3    64  UNL64       0.0330
    381 H          -2.4061   15.4236    9.8920 H      64  UNL64       0.0521
    382 H          -1.9446   16.6468    8.6678 H      64  UNL64       0.0521
    383 H          -1.0446   16.5323   10.2027 H      64  UNL64       0.0521
    384 H          -1.1723   14.5474    8.1713 H      64  UNL64       0.2090
    385 O          -0.5987   15.7852   12.4247 O.3    65  UNL65      -0.3982
    386 C          -2.0130   15.7273   12.4565 C.3    65  UNL65       0.0330
    387 H          -2.3329   15.0439   13.2471 H      65  UNL65       0.0521
    388 H          -2.3862   15.3826   11.4891 H      65  UNL65       0.0521
    389 H          -2.4050   16.7264   12.6608 H      65  UNL65       0.0521
    390 H          -0.2800   14.8850   12.2416 H      65  UNL65       0.2090
    391 O          -0.5177   15.5596   15.0918 O.3    66  UNL66      -0.3982
    392 C          -1.8234   15.8585   15.5504 C.3    66  UNL66       0.0330
    393 H          -2.3018   14.9448   15.9117 H      66  UNL66       0.0521
    394 H          -2.4074   16.2900   14.7339 H      66  UNL66       0.0521
    395 H          -1.7562   16.5799   16.3682 H      66  UNL66       0.0521
    396 H          -0.6094   14.9178   14.3671 H      66  UNL66       0.2090
    397 O          -0.5871   15.7682   18.3633 O.3    67  UNL67      -0.3982
    398 C          -2.0016   15.7226   18.4049 C.3    67  UNL67       0.0330
    399 H          -2.3700   15.0786   17.6025 H      67  UNL67       0.0521
    400 H          -2.4030   16.7323   18.2896 H      67  UNL67       0.0521
    401 H          -2.3158   15.3158   19.3689 H      67  UNL67       0.0521
    402 H          -0.3383   16.1330   17.4970 H      67  UNL67       0.2090
    403 O          -0.5986   15.8261   21.4735 O.3    68  UNL68      -0.3982
    404 C          -2.0120   15.8501   21.5523 C.3    68  UNL68       0.0330
    405 H          -2.4056   16.5739   20.8343 H      68  UNL68       0.0521
    406 H          -2.3166   16.1233   22.5655 H      68  UNL68       0.0521
    407 H          -2.3981   14.8564   21.3136 H      68  UNL68       0.0521
    408 H          -0.2850   16.7206   21.6902 H      68  UNL68       0.2090
    409 O          -0.0262   15.7324   23.8801 O.3    69  UNL69      -0.3982
    410 C          -1.0176   16.0093   24.8522 C.3    69  UNL69       0.0330
    411 H          -1.8719   16.4955   24.3745 H      69  UNL69       0.0521
    412 H          -0.6000   16.6592   25.6249 H      69  UNL69       0.0521
    413 H          -1.3425   15.0700   25.3057 H      69  UNL69       0.0521
    414 H           0.2424   16.5841   23.4953 H      69  UNL69       0.2090
    415 O          -0.7189   15.1598   27.6150 O.3    70  UNL70      -0.3982
    416 C          -1.5448   16.2146   28.0731 C.3    70  UNL70       0.0330
    417 H          -2.2834   15.8213   28.7759 H      70  UNL70       0.0521
    418 H          -2.0477   16.6806   27.2222 H      70  UNL70       0.0521
    419 H          -0.9240   16.9581   28.5785 H      70  UNL70       0.0521
    420 H          -1.2972   14.5162   27.1713 H      70  UNL70       0.2090
    421 O          -0.6766   16.4939   30.5641 O.3    71  UNL71      -0.3982
    422 C          -1.6592   15.7390   31.2490 C.3    71  UNL71       0.0330
    423 H          -1.1712   15.0204   31.9121 H      71  UNL71       0.0521
    424 H          -2.2873   15.2145   30.5248 H      71  UNL71       0.0521
    425 H          -2.2783   16.4164   31.8418 H      71  UNL71       0.0521
    426 H          -0.1432   15.8664   30.0471 H      71  UNL71       0.2090
    427 O          -0.5862   15.9398   34.2281 O.3    72  UNL72      -0.3982
    428 C          -2.0000   15.9432   34.3019 C.3    72  UNL72       0.0330
    429 H          -2.4067   15.2618   33.5505 H      72  UNL72       0.0521
    430 H          -2.3723   16.9561   34.1303 H      72  UNL72       0.0521
    431 H          -2.3047   15.6091   35.2965 H      72  UNL72       0.0521
    432 H          -0.3460   16.2405   33.3351 H      72  UNL72       0.2090
    433 O          -0.6684   19.0794   -1.3827 O.3    73  UNL73      -0.3982
    434 C          -1.5762   19.2413   -0.3083 C.3    73  UNL73       0.0330
    435 H          -1.9509   18.2634    0.0038 H      73  UNL73       0.0521
    436 H          -2.4063   19.8776   -0.6244 H      73  UNL73       0.0521
    437 H          -1.0560   19.7137    0.5282 H      73  UNL73       0.0521
    438 H          -1.1581   18.6583   -2.1095 H      73  UNL73       0.2090
    439 O          -0.5822   18.7806    2.9764 O.3    74  UNL74      -0.3982
    440 C          -1.9907   18.9195    3.0124 C.3    74  UNL74       0.0330
    441 H          -2.4041   18.2538    3.7742 H      74  UNL74       0.0521
    442 H          -2.4072   18.6726    2.0328 H      74  UNL74       0.0521
    443 H          -2.2395   19.9537    3.2615 H      74  UNL74       0.0521
    444 H          -0.3922   17.8535    2.7531 H      74  UNL74       0.2090
    445 O          -0.5955   19.2194    6.2409 O.3    75  UNL75      -0.3982
    446 C          -2.0098   19.2513    6.1820 C.3    75  UNL75       0.0330
    447 H          -2.4074   18.2599    6.4126 H      75  UNL75       0.0521
    448 H          -2.3268   19.5594    5.1828 H      75  UNL75       0.0521
    449 H          -2.3798   19.9700    6.9170 H      75  UNL75       0.0521
    450 H          -0.2965   18.5737    5.5782 H      75  UNL75       0.2090
    451 O          -0.5998   18.9379    9.2081 O.3    76  UNL76      -0.3982
    452 C          -2.0126   18.8658    9.2653 C.3    76  UNL76       0.0330
    453 H          -2.3103   18.0802    9.9643 H      76  UNL76       0.0521
    454 H          -2.4079   18.6513    8.2695 H      76  UNL76       0.0521
    455 H          -2.4036   19.8255    9.6112 H      76  UNL76       0.0521
    456 H          -0.2818   18.0728    8.8983 H      76  UNL76       0.2090
    457 O          -0.5826   19.7781   12.2543 O.3    77  UNL77      -0.3982
    458 C          -1.9924   19.8737   12.3437 C.3    77  UNL77       0.0330
    459 H          -2.4022   18.9200   12.6855 H      77  UNL77       0.0521
    460 H          -2.4040   20.1293   11.3643 H      77  UNL77       0.0521
    461 H          -2.2506   20.6566   13.0607 H      77  UNL77       0.0521
    462 H          -0.3841   19.0761   11.6114 H      77  UNL77       0.2090
    463 O          -0.6354   18.2987   14.6942 O.3    78  UNL78      -0.3982
    464 C          -1.5856   19.0830   15.3916 C.3    78  UNL78       0.0330
    465 H          -2.3233   18.4292   15.8634 H      78  UNL78       0.0521
    466 H          -2.0796   19.7639   14.6942 H      78  UNL78       0.0521
    467 H          -1.0712   19.6633   16.1612 H      78  UNL78       0.0521
    468 H          -1.1210   17.7955   14.0185 H      78  UNL78       0.2090
    469 O          -0.4727   18.6555   18.0465 O.3    79  UNL79      -0.3982
    470 C          -1.6802   19.2791   18.4432 C.3    79  UNL79       0.0330
    471 H          -2.3454   18.5361   18.8902 H      79  UNL79       0.0521
    472 H          -2.1585   19.7356   17.5733 H      79  UNL79       0.0521
    473 H          -1.4547   20.0534   19.1804 H      79  UNL79       0.0521
    474 H          -0.7045   17.9740   17.3928 H      79  UNL79       0.2090
    475 O          -0.5196   18.7150   20.7302 O.3    80  UNL80      -0.3982
    476 C          -1.5132   19.1527   21.6388 C.3    80  UNL80       0.0330
    477 H          -1.7617   18.3411   22.3272 H      80  UNL80       0.0521
    478 H          -2.4036   19.4612   21.0857 H      80  UNL80       0.0521
    479 H          -1.1265   20.0028   22.2058 H      80  UNL80       0.0521
    480 H          -0.8913   17.9608   20.2419 H      80  UNL80       0.2090
    481 O          -0.5378   18.9544   24.6469 O.3    81  UNL81      -0.3982
    482 C          -1.9142   18.7302   24.8917 C.3    81  UNL81       0.0330
    483 H          -2.0283   17.9507   25.6492 H      81  UNL81       0.0521
    484 H          -2.4053   18.4263   23.9641 H      81  UNL81       0.0521
    485 H          -2.3661   19.6564   25.2541 H      81  UNL81       0.0521
    486 H          -0.1643   18.1157   24.3267 H      81  UNL81       0.2090
    487 O          -0.5135   19.0763   27.7003 O.3    82  UNL82      -0.3982
    488 C          -1.8276   19.4388   28.0825 C.3    82  UNL82       0.0330
    489 H          -2.3023   18.6006   28.5987 H      82  UNL82       0.0521
    490 H          -2.4050   19.7080   27.1947 H      82  UNL82       0.0521
    491 H          -1.7776   20.2975   28.7561 H      82  UNL82       0.0521
    492 H          -0.5899   18.3125   27.1035 H      82  UNL82       0.2090
    493 O          -0.5986   19.0007   30.9183 O.3    83  UNL83      -0.3982
    494 C          -2.0134   18.9510   30.9401 C.3    83  UNL83       0.0330
    495 H          -2.3663   19.0435   31.9703 H      83  UNL83       0.0521
    496 H          -2.3522   18.0049   30.5111 H      83  UNL83       0.0521
    497 H          -2.4072   19.7794   30.3466 H      83  UNL83       0.0521
    498 H          -0.2783   18.2542   31.4527 H      83  UNL83       0.2090
    499 O          -0.4180   19.0838   34.9661 O.3    84  UNL84      -0.3982
    500 C          -1.7357   19.3158   35.4291 C.3    84  UNL84       0.0330
    501 H          -2.0803   18.4498   35.9995 H      84  UNL84       0.0521
    502 H          -2.3967   19.4906   34.5767 H      84  UNL84       0.0521
    503 H          -1.7355   20.1976   36.0740 H      84  UNL84       0.0521
    504 H          -0.4497   18.2960   34.3969 H      84  UNL84       0.2090
    505 O          -1.5113   24.0307   -1.2993 O.3    85  UNL85      -0.3982
    506 C          -1.4804   23.5888    0.0454 C.3    85  UNL85       0.0330
    507 H          -1.6391   24.4392    0.7131 H      85  UNL85       0.0521
    508 H          -0.5143   23.1229    0.2545 H      85  UNL85       0.0521
    509 H          -2.2762   22.8558    0.1969 H      85  UNL85       0.0521
    510 H          -0.7946   24.6795   -1.4035 H      85  UNL85       0.2090
    511 O          -0.5734   21.8023    2.5852 O.3    86  UNL86      -0.3982
    512 C          -1.6154   22.5530    3.1812 C.3    86  UNL86       0.0330
    513 H          -2.2319   21.8955    3.7993 H      86  UNL86       0.0521
    514 H          -2.2254   23.0146    2.4009 H      86  UNL86       0.0521
    515 H          -1.1775   23.3335    3.8078 H      86  UNL86       0.0521
    516 H          -0.9924   21.1181    2.0358 H      86  UNL86       0.2090
    517 O          -0.5947   22.0392    5.6178 O.3    87  UNL87      -0.3982
    518 C          -1.6045   22.7391    6.3213 C.3    87  UNL87       0.0330
    519 H          -2.1664   22.0400    6.9456 H      87  UNL87       0.0521
    520 H          -2.2740   23.2276    5.6092 H      87  UNL87       0.0521
    521 H          -1.1364   23.4955    6.9557 H      87  UNL87       0.0521
    522 H          -1.0400   21.3755    5.0639 H      87  UNL87       0.2090
    523 O          -0.6190   22.4357    9.0093 O.3    88  UNL88      -0.3982
    524 C          -1.5967   23.3988    9.3573 C.3    88  UNL88       0.0330
    525 H          -2.3709   22.9289    9.9690 H      88  UNL88       0.0521
    526 H          -2.0381   23.8157    8.4489 H      88  UNL88       0.0521
    527 H          -1.1198   24.1988    9.9284 H      88  UNL88       0.0521
    528 H          -1.0714   21.7390    8.5039 H      88  UNL88       0.2090
    529 O          -0.6863   22.2430   11.6239 O.3    89  UNL89      -0.3982
    530 C          -1.5679   23.1448   12.2674 C.3    89  UNL89       0.0330
    531 H          -2.4058   22.5914   12.6988 H      89  UNL89       0.0521
    532 H          -1.9348   23.8762   11.5432 H      89  UNL89       0.0521
    533 H          -1.0278   23.6628   13.0633 H      89  UNL89       0.0521
    534 H          -1.1934   21.7987   10.9232 H      89  UNL89       0.2090
    535 O          -0.5827   22.1400   15.2383 O.3    90  UNL90      -0.3982
    536 C          -1.9926   22.2667   15.2642 C.3    90  UNL90       0.0330
    537 H          -2.3975   21.6742   16.0884 H      90  UNL90       0.0521
    538 H          -2.4078   21.9210   14.3144 H      90  UNL90       0.0521
    539 H          -2.2523   23.3176   15.4118 H      90  UNL90       0.0521
    540 H          -0.3829   21.1976   15.1060 H      90  UNL90       0.2090
    541 O          -0.5795   22.0157   17.8962 O.3    91  UNL91      -0.3982
    542 C          -1.7735   22.6235   18.3539 C.3    91  UNL91       0.0330
    543 H          -2.4058   21.8717   18.8328 H      91  UNL91       0.0521
    544 H          -2.3007   23.0743   17.5096 H      91  UNL91       0.0521
    545 H          -1.5212   23.4002   19.0797 H      91  UNL91       0.0521
    546 H          -0.8351   21.3316   17.2542 H      91  UNL91       0.2090
    547 O          -0.5833   22.2401   21.5053 O.3    92  UNL92      -0.3982
    548 C          -1.9943   22.3290   21.5804 C.3    92  UNL92       0.0330
    549 H          -2.3957   21.4095   22.0135 H      92  UNL92       0.0521
    550 H          -2.4043   22.4821   20.5791 H      92  UNL92       0.0521
    551 H          -2.2636   23.1762   22.2154 H      92  UNL92       0.0521
    552 H          -0.3748   21.4800   20.9358 H      92  UNL92       0.2090
    553 O          -0.6074   21.7192   24.6669 O.3    93  UNL93      -0.3982
    554 C          -1.4728   22.8025   24.9532 C.3    93  UNL93       0.0330
    555 H          -2.4054   22.4226   25.3779 H      93  UNL93       0.0521
    556 H          -1.6780   23.3586   24.0352 H      93  UNL93       0.0521
    557 H          -0.9882   23.4629   25.6761 H      93  UNL93       0.0521
    558 H          -1.0641   21.1510   24.0234 H      93  UNL93       0.2090
    559 O          -0.4242   22.2722   28.5149 O.3    94  UNL94      -0.3982
    560 C          -1.6274   22.6830   27.8921 C.3    94  UNL94       0.0330
    561 H          -1.9298   21.9367   27.1533 H      94  UNL94       0.0521
    562 H          -1.4759   23.6505   27.4073 H      94  UNL94       0.0521
    563 H          -2.4068   22.7768   28.6520 H      94  UNL94       0.0521
    564 H           0.2481   22.1977   27.8163 H      94  UNL94       0.2090
    565 O          -0.5756   21.7567   30.8767 O.3    95  UNL95      -0.3982
    566 C          -1.4872   22.7906   31.2000 C.3    95  UNL95       0.0330
    567 H          -2.4073   22.3552   31.5976 H      95  UNL95       0.0521
    568 H          -1.7064   23.3774   30.3046 H      95  UNL95       0.0521
    569 H          -1.0367   23.4380   31.9559 H      95  UNL95       0.0521
    570 H          -1.0027   21.1991   30.2043 H      95  UNL95       0.2090
    571 O          -0.5889   22.1837   34.1578 O.3    96  UNL96      -0.3982
    572 C          -2.0037   22.2343   34.1765 C.3    96  UNL96       0.0330
    573 H          -2.3571   22.1945   35.2098 H      96  UNL96       0.0521
    574 H          -2.4068   21.3915   33.6097 H      96  UNL96       0.0521
    575 H          -2.3319   23.1696   33.7172 H      96  UNL96       0.0521
    576 H          -0.3276   21.3434   34.5714 H      96  UNL96       0.2090
    577 O          -0.5881   27.0660   -1.3485 O.3    97  UNL97      -0.3982
    578 C          -2.0029   27.0154   -1.3613 C.3    97  UNL97       0.0330
    579 H          -2.4013   27.9991   -1.6220 H      97  UNL97       0.0521
    580 H          -2.3664   26.7126   -0.3763 H      97  UNL97       0.0521
    581 H          -2.3256   26.2848   -2.1067 H      97  UNL97       0.0521
    582 H          -0.3317   27.7221   -0.6782 H      97  UNL97       0.2090
    583 O          -0.6617   26.9497    3.2880 O.3    98  UNL98      -0.3982
    584 C          -1.7812   26.6563    2.4724 C.3    98  UNL98       0.0330
    585 H          -1.4396   26.3277    1.4876 H      98  UNL98       0.0521
    586 H          -2.4055   27.5477    2.3746 H      98  UNL98       0.0521
    587 H          -2.3615   25.8572    2.9396 H      98  UNL98       0.0521
    588 H          -0.1665   27.6616    2.8481 H      98  UNL98       0.2090
    589 O          -0.5999   27.0223    6.2503 O.3    99  UNL99      -0.3982
    590 C          -2.0132   26.9414    6.2746 C.3    99  UNL99       0.0330
    591 H          -2.3174   26.0072    6.7530 H      99  UNL99       0.0521
    592 H          -2.3989   26.9826    5.2530 H      99  UNL99       0.0521
    593 H          -2.4076   27.7857    6.8449 H      99  UNL99       0.0521
    594 H          -0.2789   26.2609    5.7377 H      99  UNL99       0.2090
    595 O          -0.4592   27.3306    9.2297 O.3   100  UNL100     -0.3982
    596 C          -1.8315   26.9825    9.2376 C.3   100  UNL100      0.0330
    597 H          -2.1647   26.8337   10.2677 H     100  UNL100      0.0521
    598 H          -1.9794   26.0671    8.6596 H     100  UNL100      0.0521
    599 H          -2.4064   27.7937    8.7846 H     100  UNL100      0.0521
    600 H           0.0251   26.5925    9.6374 H     100  UNL100      0.2090
    601 O          -0.7278   27.2722   12.5140 O.3   101  UNL101     -0.3982
    602 C          -1.3213   25.9872   12.5436 C.3   101  UNL101      0.0330
    603 H          -1.1576   25.4871   11.5858 H     101  UNL101      0.0521
    604 H          -2.3922   26.0839   12.7380 H     101  UNL101      0.0521
    605 H          -0.8598   25.4010   13.3418 H     101  UNL101      0.0521
    606 H          -1.1572   27.7688   11.7967 H     101  UNL101      0.2090
    607 O          -0.5964   26.9539   15.0213 O.3   102  UNL102     -0.3982
    608 C          -2.0117   26.9912   15.0175 C.3   102  UNL102      0.0330
    609 H          -2.3585   27.6157   14.1905 H     102  UNL102      0.0521
    610 H          -2.3689   27.3952   15.9679 H     102  UNL102      0.0521
    611 H          -2.3935   25.9756   14.8894 H     102  UNL102      0.0521
    612 H          -0.2868   27.8685   15.1365 H     102  UNL102      0.2090
    613 O          -1.1788   25.2210   17.1397 O.3   103  UNL103     -0.3982
    614 C          -1.3628   25.8924   18.3725 C.3   103  UNL103      0.0330
    615 H          -1.9858   25.2823   19.0313 H     103  UNL103      0.0521
    616 H          -1.8402   26.8590   18.1942 H     103  UNL103      0.0521
    617 H          -0.3881   26.0505   18.8399 H     103  UNL103      0.0521
    618 H          -2.0602   25.0949   16.7487 H     103  UNL103      0.2090
    619 O          -0.0163   25.6323   22.7808 O.3   104  UNL104     -0.3982
    620 C          -0.5590   25.7138   21.4757 C.3   104  UNL104      0.0330
    621 H           0.2495   25.8382   20.7510 H     104  UNL104      0.0521
    622 H          -1.2473   26.5605   21.4186 H     104  UNL104      0.0521
    623 H          -1.1014   24.7907   21.2582 H     104  UNL104      0.0521
    624 H           0.4587   26.4647   22.9452 H     104  UNL104      0.2090
    625 O          -0.5989   27.2248   24.8537 O.3   105  UNL105     -0.3982
    626 C          -2.0122   27.1519   24.8099 C.3   105  UNL105      0.0330
    627 H          -2.4059   27.0794   25.8268 H     105  UNL105      0.0521
    628 H          -2.3150   26.2784   24.2274 H     105  UNL105      0.0521
    629 H          -2.4000   28.0561   24.3350 H     105  UNL105      0.0521
    630 H          -0.2839   26.4095   25.2799 H     105  UNL105      0.2090
    631 O           0.7125   25.7194   28.0194 O.3   106  UNL106     -0.3982
    632 C          -0.6613   26.0611   28.0321 C.3   106  UNL106      0.0330
    633 H          -1.1629   25.5277   28.8434 H     106  UNL106      0.0521
    634 H          -1.1127   25.7952   27.0732 H     106  UNL106      0.0521
    635 H          -0.7583   27.1375   28.1920 H     106  UNL106      0.0521
    636 H           0.7668   24.7592   27.8758 H     106  UNL106      0.2090
    637 O          -0.5994   26.8667   30.9777 O.3   107  UNL107     -0.3982
    638 C          -2.0127   26.8604   31.0619 C.3   107  UNL107      0.0330
    639 H          -2.3164   26.9091   32.1106 H     107  UNL107      0.0521
    640 H          -2.4020   25.9495   30.6007 H     107  UNL107      0.0521
    641 H          -2.4042   27.7311   30.5307 H     107  UNL107      0.0521
    642 H          -0.2811   26.0832   31.4576 H     107  UNL107      0.2090
    643 O          -0.5995   26.8007   35.3459 O.3   108  UNL108     -0.3982
    644 C          -2.0125   26.7735   35.2607 C.3   108  UNL108      0.0330
    645 H          -2.4067   26.0357   35.9639 H     108  UNL108      0.0521
    646 H          -2.3121   26.5176   34.2415 H     108  UNL108      0.0521
    647 H          -2.4029   27.7615   35.5157 H     108  UNL108      0.0521
    648 H          -0.2822   25.9111   35.1144 H     108  UNL108      0.2090
    649 O           2.4066   -1.0899   -1.2252 O.3   109  UNL109     -0.3982
    650 C           2.5376   -1.1131    0.1843 C.3   109  UNL109      0.0330
    651 H           3.1478   -1.9699    0.4805 H     109  UNL109      0.0521
    652 H           1.5477   -1.1816    0.6420 H     109  UNL109      0.0521
    653 H           3.0246   -0.1913    0.5110 H     109  UNL109      0.0521
    654 H           1.9716   -1.9197   -1.4854 H     109  UNL109      0.2090
    655 O           1.6945   -0.9007    3.3244 O.3   110  UNL110     -0.3982
    656 C           1.6484    0.5045    3.1575 C.3   110  UNL110      0.0330
    657 H           1.1415    0.7446    2.2196 H     110  UNL110      0.0521
    658 H           2.6652    0.9046    3.1472 H     110  UNL110      0.0521
    659 H           1.0950    0.9433    3.9910 H     110  UNL110      0.0521
    660 H           2.1913   -1.2618    2.5705 H     110  UNL110      0.2090
    661 O           2.2086   -1.9621    5.7266 O.3   111  UNL111     -0.3982
    662 C           2.1648   -0.8028    6.5382 C.3   111  UNL111      0.0330
    663 H           1.2967   -0.8529    7.2002 H     111  UNL111      0.0521
    664 H           2.1021    0.0848    5.9040 H     111  UNL111      0.0521
    665 H           3.0761   -0.7550    7.1389 H     111  UNL111      0.0521
    666 H           1.3877   -1.9773    5.2056 H     111  UNL111      0.2090
    667 O           1.9670   -0.8805    9.5525 O.3   112  UNL112     -0.3982
    668 C           1.7058    0.5006    9.3824 C.3   112  UNL112      0.0330
    669 H           1.6545    0.9858   10.3603 H     112  UNL112      0.0521
    670 H           0.7609    0.6306    8.8492 H     112  UNL112      0.0521
    671 H           2.5150    0.9461    8.7991 H     112  UNL112      0.0521
    672 H           1.2327   -1.2481   10.0732 H     112  UNL112      0.2090
    673 O           2.1567   -1.8930   11.9123 O.3   113  UNL113     -0.3982
    674 C           0.9906   -1.2161   12.3443 C.3   113  UNL113      0.0330
    675 H           0.6241   -0.5712   11.5417 H     113  UNL113      0.0521
    676 H           1.2220   -0.6185   13.2294 H     113  UNL113      0.0521
    677 H           0.2243   -1.9532   12.5952 H     113  UNL113      0.0521
    678 H           2.8182   -1.2136   11.6970 H     113  UNL113      0.2090
    679 O           2.5688   -1.6803   15.1867 O.3   114  UNL114     -0.3982
    680 C           2.1785   -0.4393   15.7453 C.3   114  UNL114      0.0330
    681 H           1.2697   -0.5747   16.3369 H     114  UNL114      0.0521
    682 H           2.0004    0.2820   14.9441 H     114  UNL114      0.0521
    683 H           2.9798   -0.0727   16.3911 H     114  UNL114      0.0521
    684 H           1.8386   -1.9804   14.6190 H     114  UNL114      0.2090
    685 O           2.1208   -1.2469   18.9729 O.3   115  UNL115     -0.3982
    686 C           1.2440   -0.2410   19.4462 C.3   115  UNL115      0.0330
    687 H           0.4303   -0.7022   20.0116 H     115  UNL115      0.0521
    688 H           0.8413    0.3204   18.5997 H     115  UNL115      0.0521
    689 H           1.7997    0.4365   20.0987 H     115  UNL115      0.0521
    690 H           1.5998   -1.8323   18.3973 H     115  UNL115      0.2090
    691 O           1.2205   -1.9798   21.8169 O.3   116  UNL116     -0.3982
    692 C           2.2514   -1.0537   22.1070 C.3   116  UNL116      0.0330
    693 H           2.7765   -1.3639   23.0139 H     116  UNL116      0.0521
    694 H           1.8206   -0.0590   22.2448 H     116  UNL116      0.0521
    695 H           2.9544   -1.0313   21.2711 H     116  UNL116      0.0521
    696 H           0.6126   -1.9777   22.5758 H     116  UNL116      0.2090
    697 O           2.7213    0.2472   25.3022 O.3   117  UNL117     -0.3982
    698 C           1.3197    0.4373   25.2406 C.3   117  UNL117      0.0330
    699 H           0.8188   -0.3516   25.8071 H     117  UNL117      0.0521
    700 H           0.9936    0.4151   24.1979 H     117  UNL117      0.0521
    701 H           1.0733    1.4084   25.6764 H     117  UNL117      0.0521
    702 H           2.9093   -0.6218   24.9086 H     117  UNL117      0.2090
    703 O           2.4633   -0.8266   27.6792 O.3   118  UNL118     -0.3982
    704 C           1.8211    0.2735   28.2970 C.3   118  UNL118      0.0330
    705 H           1.1457   -0.0882   29.0763 H     118  UNL118      0.0521
    706 H           1.2609    0.8375   27.5474 H     118  UNL118      0.0521
    707 H           2.5784    0.9207   28.7458 H     118  UNL118      0.0521
    708 H           1.7666   -1.3824   27.2902 H     118  UNL118      0.2090
    709 O           2.3009   -1.8668   30.4947 O.3   119  UNL119     -0.3982
    710 C           2.0110   -0.9395   31.5245 C.3   119  UNL119      0.0330
    711 H           1.1804   -1.3126   32.1289 H     119  UNL119      0.0521
    712 H           1.7501    0.0258   31.0839 H     119  UNL119      0.0521
    713 H           2.8946   -0.8223   32.1562 H     119  UNL119      0.0521
    714 H           1.4990   -1.9500   29.9510 H     119  UNL119      0.2090
    715 O           2.7447   -0.8206   34.7110 O.3   120  UNL120     -0.3982
    716 C           1.5334   -1.1905   35.3437 C.3   120  UNL120      0.0330
    717 H           1.7288   -1.9801   36.0736 H     120  UNL120      0.0521
    718 H           0.8216   -1.5418   34.5927 H     120  UNL120      0.0521
    719 H           1.1191   -0.3187   35.8554 H     120  UNL120      0.0521
    720 H           3.0883   -1.6138   34.2658 H     120  UNL120      0.2090
    721 O           3.0282    3.2653   -2.1072 O.3   121  UNL121     -0.3982
    722 C           3.7827    3.3537   -0.9124 C.3   121  UNL121      0.0330
    723 H           4.4285    2.4767   -0.8225 H     121  UNL121      0.0521
    724 H           3.1058    3.4103   -0.0564 H     121  UNL121      0.0521
    725 H           4.3988    4.2552   -0.9472 H     121  UNL121      0.0521
    726 H           2.4919    2.4564   -2.0472 H     121  UNL121      0.2090
    727 O           2.4058    3.1065    3.1559 O.3   122  UNL122     -0.3982
    728 C           1.0363    3.4610    3.2134 C.3   122  UNL122      0.0330
    729 H           0.4254    2.5553    3.2426 H     122  UNL122      0.0521
    730 H           0.7771    4.0600    2.3370 H     122  UNL122      0.0521
    731 H           0.8586    4.0471    4.1181 H     122  UNL122      0.0521
    732 H           2.5328    2.5877    2.3433 H     122  UNL122      0.2090
    733 O           2.6035    3.8308    5.6659 O.3   123  UNL123     -0.3982
    734 C           3.2102    2.5536    5.7378 C.3   123  UNL123      0.0330
    735 H           2.6184    1.8353    5.1649 H     123  UNL123      0.0521
    736 H           3.2747    2.2382    6.7819 H     123  UNL123      0.0521
    737 H           4.2157    2.6136    5.3147 H     123  UNL123      0.0521
    738 H           1.7134    3.7462    6.0482 H     123  UNL123      0.2090
    739 O           2.8499    3.8118    9.4603 O.3   124  UNL124     -0.3982
    740 C           1.7631    3.3843    8.6599 C.3   124  UNL124      0.0330
    741 H           1.4988    4.1732    7.9513 H     124  UNL124      0.0521
    742 H           0.9077    3.1525    9.2992 H     124  UNL124      0.0521
    743 H           2.0579    2.4875    8.1101 H     124  UNL124      0.0521
    744 H           2.5586    4.6084    9.9358 H     124  UNL124      0.2090
    745 O           1.9744    2.8919   11.6805 O.3   125  UNL125     -0.3982
    746 C           2.0700    1.8517   12.6362 C.3   125  UNL125      0.0330
    747 H           1.1763    1.8503   13.2652 H     125  UNL125      0.0521
    748 H           2.9609    2.0012   13.2509 H     125  UNL125      0.0521
    749 H           2.1467    0.8952   12.1138 H     125  UNL125      0.0521
    750 H           1.9077    3.7275   12.1734 H     125  UNL125      0.2090
    751 O           3.7670    3.2502   15.3119 O.3   126  UNL126     -0.3982
    752 C           2.3800    3.1819   15.5876 C.3   126  UNL126      0.0330
    753 H           2.1909    3.5431   16.6015 H     126  UNL126      0.0521
    754 H           2.0382    2.1489   15.4876 H     126  UNL126      0.0521
    755 H           1.8443    3.8114   14.8731 H     126  UNL126      0.0521
    756 H           4.2156    2.6822   15.9613 H     126  UNL126      0.2090
    757 O           2.4195    2.2413   18.8557 O.3   127  UNL127     -0.3982
    758 C           1.2367    2.9841   19.0875 C.3   127  UNL127      0.0330
    759 H           0.5234    2.3709   19.6438 H     127  UNL127      0.0521
    760 H           0.8037    3.2890   18.1318 H     127  UNL127      0.0521
    761 H           1.4842    3.8727   19.6729 H     127  UNL127      0.0521
    762 H           2.1684    1.4597   18.3346 H     127  UNL127      0.2090
    763 O           3.1751    3.7292   21.4668 O.3   128  UNL128     -0.3982
    764 C           1.9714    3.0630   21.8013 C.3   128  UNL128      0.0330
    765 H           1.9550    2.8550   22.8740 H     128  UNL128      0.0521
    766 H           1.9016    2.1298   21.2372 H     128  UNL128      0.0521
    767 H           1.1263    3.7058   21.5440 H     128  UNL128      0.0521
    768 H           3.9066    3.1350   21.7063 H     128  UNL128      0.2090
    769 O           2.5090    3.7781   25.0846 O.3   129  UNL129     -0.3982
    770 C           3.6861    3.0599   24.7634 C.3   129  UNL129      0.0330
    771 H           3.4551    2.2942   24.0187 H     129  UNL129      0.0521
    772 H           4.0884    2.5952   25.6668 H     129  UNL129      0.0521
    773 H           4.4244    3.7530   24.3532 H     129  UNL129      0.0521
    774 H           1.8731    3.1373   25.4460 H     129  UNL129      0.2090
    775 O           2.5770    3.9072   27.9863 O.3   130  UNL130     -0.3982
    776 C           1.2076    3.6714   28.2581 C.3   130  UNL130      0.0330
    777 H           1.0946    2.7029   28.7515 H     130  UNL130      0.0521
    778 H           0.6423    3.6842   27.3231 H     130  UNL130      0.0521
    779 H           0.8355    4.4593   28.9171 H     130  UNL130      0.0521
    780 H           2.8790    3.1927   27.3999 H     130  UNL130      0.2090
    781 O           2.4538    2.5446   31.4880 O.3   131  UNL131     -0.3982
    782 C           3.5676    3.2357   30.9529 C.3   131  UNL131      0.0330
    783 H           4.0643    3.7986   31.7471 H     131  UNL131      0.0521
    784 H           3.2320    3.9148   30.1654 H     131  UNL131      0.0521
    785 H           4.2671    2.5099   30.5314 H     131  UNL131      0.0521
    786 H           1.8512    3.2141   31.8543 H     131  UNL131      0.2090
    787 O           1.6021    3.6537   34.4537 O.3   132  UNL132     -0.3982
    788 C           2.1247    2.7743   35.4325 C.3   132  UNL132      0.0330
    789 H           2.8632    3.3022   36.0409 H     132  UNL132      0.0521
    790 H           2.5885    1.9153   34.9414 H     132  UNL132      0.0521
    791 H           1.3088    2.4289   36.0718 H     132  UNL132      0.0521
    792 H           2.3486    3.9432   33.9020 H     132  UNL132      0.2090
    793 O           2.2122    5.6197   -0.9875 O.3   133  UNL133     -0.3982
    794 C           2.3145    5.8892    0.3986 C.3   133  UNL133      0.0330
    795 H           2.6754    6.9100    0.5467 H     133  UNL133      0.0521
    796 H           3.0037    5.1772    0.8592 H     133  UNL133      0.0521
    797 H           1.3273    5.7844    0.8547 H     133  UNL133      0.0521
    798 H           3.1028    5.7204   -1.3646 H     133  UNL133      0.2090
    799 O           2.4037    7.0451    2.9431 O.3   134  UNL134     -0.3982
    800 C           1.0534    7.2236    3.3296 C.3   134  UNL134      0.0330
    801 H           0.7403    6.3876    3.9601 H     134  UNL134      0.0521
    802 H           0.4227    7.2782    2.4389 H     134  UNL134      0.0521
    803 H           0.9653    8.1552    3.8934 H     134  UNL134      0.0521
    804 H           2.4505    6.2112    2.4452 H     134  UNL134      0.2090
    805 O           3.3673    6.5119    6.8299 O.3   135  UNL135     -0.3982
    806 C           2.0996    6.4735    6.2006 C.3   135  UNL135      0.0330
    807 H           1.5587    5.5803    6.5230 H     135  UNL135      0.0521
    808 H           2.2306    6.4615    5.1159 H     135  UNL135      0.0521
    809 H           1.5336    7.3629    6.4872 H     135  UNL135      0.0521
    810 H           3.8461    5.7108    6.5569 H     135  UNL135      0.2090
    811 O           1.9460    6.1410    8.6849 O.3   136  UNL136     -0.3982
    812 C           1.6032    7.0826    9.6851 C.3   136  UNL136      0.0330
    813 H           0.8892    6.6338   10.3800 H     136  UNL136      0.0521
    814 H           1.1659    7.9685    9.2182 H     136  UNL136      0.0521
    815 H           2.5068    7.3685   10.2286 H     136  UNL136      0.0521
    816 H           1.1248    5.9065    8.2199 H     136  UNL136      0.2090
    817 O           3.5048    7.1230   12.4016 O.3   137  UNL137     -0.3982
    818 C           2.3935    6.2530   12.5137 C.3   137  UNL137      0.0330
    819 H           2.6675    5.3865   13.1206 H     137  UNL137      0.0521
    820 H           2.0810    5.9296   11.5178 H     137  UNL137      0.0521
    821 H           1.5712    6.7873   12.9955 H     137  UNL137      0.0521
    822 H           4.2179    6.6215   11.9708 H     137  UNL137      0.2090
    823 O           2.8219    5.7011   16.2405 O.3   138  UNL138     -0.3982
    824 C           3.3147    6.6111   15.2742 C.3   138  UNL138      0.0330
    825 H           3.8644    6.0641   14.5042 H     138  UNL138      0.0521
    826 H           3.9711    7.3381   15.7586 H     138  UNL138      0.0521
    827 H           2.4718    7.1333   14.8156 H     138  UNL138      0.0521
    828 H           3.5921    5.2531   16.6300 H     138  UNL138      0.2090
    829 O           1.9499    5.9618   18.7016 O.3   139  UNL139     -0.3982
    830 C           1.2680    7.2015   18.6507 C.3   139  UNL139      0.0330
    831 H           0.2155    7.0501   18.9031 H     139  UNL139      0.0521
    832 H           1.3557    7.6257   17.6475 H     139  UNL139      0.0521
    833 H           1.7191    7.8852   19.3736 H     139  UNL139      0.0521
    834 H           1.5277    5.3765   18.0499 H     139  UNL139      0.2090
    835 O           2.5918    7.2019   21.6835 O.3   140  UNL140     -0.3982
    836 C           1.2015    6.9376   21.7250 C.3   140  UNL140      0.0330
    837 H           1.0269    5.8723   21.5546 H     140  UNL140      0.0521
    838 H           0.6945    7.5281   20.9581 H     140  UNL140      0.0521
    839 H           0.8163    7.2149   22.7091 H     140  UNL140      0.0521
    840 H           2.9050    6.9461   20.7992 H     140  UNL140      0.2090
    841 O           1.6329    5.9834   24.4852 O.3   141  UNL141     -0.3982
    842 C           1.4337    7.2490   25.0878 C.3   141  UNL141      0.0330
    843 H           0.6096    7.1874   25.8030 H     141  UNL141      0.0521
    844 H           1.2063    7.9890   24.3166 H     141  UNL141      0.0521
    845 H           2.3469    7.5408   25.6118 H     141  UNL141      0.0521
    846 H           0.8065    5.7513   24.0283 H     141  UNL141      0.2090
    847 O           3.5886    6.5399   28.2216 O.3   142  UNL142     -0.3982
    848 C           2.2077    6.4891   27.9137 C.3   142  UNL142      0.0330
    849 H           1.6588    6.0760   28.7637 H     142  UNL142      0.0521
    850 H           2.0534    5.8663   27.0293 H     142  UNL142      0.0521
    851 H           1.8515    7.5017   27.7103 H     142  UNL142      0.0521
    852 H           3.8759    5.6277   28.3973 H     142  UNL142      0.2090
    853 O           1.8085    5.2347   31.0956 O.3   143  UNL143     -0.3982
    854 C           1.5116    6.6001   31.3238 C.3   143  UNL143      0.0330
    855 H           0.7175    6.6815   32.0702 H     143  UNL143      0.0521
    856 H           1.1954    7.0666   30.3876 H     143  UNL143      0.0521
    857 H           2.4089    7.1019   31.6935 H     143  UNL143      0.0521
    858 H           0.9940    4.8161   30.7684 H     143  UNL143      0.2090
    859 O           2.6764    5.8968   36.0743 O.3   144  UNL144     -0.3982
    860 C           3.6819    6.4655   35.2557 C.3   144  UNL144      0.0330
    861 H           3.4080    7.4923   35.0008 H     144  UNL144      0.0521
    862 H           3.7924    5.8701   34.3461 H     144  UNL144      0.0521
    863 H           4.6269    6.4682   35.8039 H     144  UNL144      0.0521
    864 H           1.8503    5.9080   35.5615 H     144  UNL144      0.2090
    865 O           1.6262    8.8152   -2.1085 O.3   145  UNL145     -0.3982
    866 C           1.7013   10.1214   -1.5675 C.3   145  UNL145      0.0330
    867 H           1.5267   10.0809   -0.4895 H     145  UNL145      0.0521
    868 H           0.9525   10.7580   -2.0451 H     145  UNL145      0.0521
    869 H           2.6972   10.5282   -1.7581 H     145  UNL145      0.0521
    870 H           0.7320    8.4805   -1.9242 H     145  UNL145      0.2090
    871 O           3.8049   10.0025    2.7734 O.3   146  UNL146     -0.3982
    872 C           2.5095    9.6567    3.2282 C.3   146  UNL146      0.0330
    873 H           2.5838    8.8561    3.9682 H     146  UNL146      0.0521
    874 H           1.9006    9.3298    2.3818 H     146  UNL146      0.0521
    875 H           2.0487   10.5338    3.6885 H     146  UNL146      0.0521
    876 H           4.1885    9.2051    2.3702 H     146  UNL146      0.2090
    877 O           2.3354    9.6423    5.7689 O.3   147  UNL147     -0.3982
    878 C           3.6986    9.6836    6.1490 C.3   147  UNL147      0.0330
    879 H           4.0817    8.6647    6.2465 H     147  UNL147      0.0521
    880 H           3.7968   10.2137    7.0994 H     147  UNL147      0.0521
    881 H           4.2662   10.2119    5.3793 H     147  UNL147      0.0521
    882 H           1.8574    9.1680    6.4704 H     147  UNL147      0.2090
    883 O           1.9496   10.2598    8.3156 O.3   148  UNL148     -0.3982
    884 C           1.9959   10.4971    9.7106 C.3   148  UNL148      0.0330
    885 H           2.7099    9.8119   10.1742 H     148  UNL148      0.0521
    886 H           1.0017   10.3493   10.1393 H     148  UNL148      0.0521
    887 H           2.3162   11.5269    9.8854 H     148  UNL148      0.0521
    888 H           1.6625    9.3391    8.1917 H     148  UNL148      0.2090
    889 O           1.9591    8.8479   11.6753 O.3   149  UNL149     -0.3982
    890 C           1.8695    9.6978   12.8041 C.3   149  UNL149      0.0330
    891 H           1.2770    9.2103   13.5823 H     149  UNL149      0.0521
    892 H           1.4030   10.6424   12.5139 H     149  UNL149      0.0521
    893 H           2.8755    9.8922   13.1832 H     149  UNL149      0.0521
    894 H           1.0519    8.6934   11.3612 H     149  UNL149      0.2090
    895 O           2.1039    9.1291   16.2110 O.3   150  UNL150     -0.3982
    896 C           1.6788   10.4662   16.0213 C.3   150  UNL150      0.0330
    897 H           0.8951   10.7064   16.7442 H     150  UNL150      0.0521
    898 H           1.3003   10.5882   15.0035 H     150  UNL150      0.0521
    899 H           2.5295   11.1345   16.1739 H     150  UNL150      0.0521
    900 H           1.3284    8.5599   16.0691 H     150  UNL150      0.2090
    901 O           3.3362    8.8474   18.9782 O.3   151  UNL151     -0.3982
    902 C           2.5846   10.0235   18.7410 C.3   151  UNL151      0.0330
    903 H           1.5626    9.7540   18.4632 H     151  UNL151      0.0521
    904 H           3.0517   10.5999   17.9388 H     151  UNL151      0.0521
    905 H           2.5655   10.6231   19.6541 H     151  UNL151      0.0521
    906 H           3.3354    8.3361   18.1511 H     151  UNL151      0.2090
    907 O           3.5983    9.8327   21.6890 O.3   152  UNL152     -0.3982
    908 C           2.1922    9.7224   21.8125 C.3   152  UNL152      0.0330
    909 H           1.9486    9.1270   22.6959 H     152  UNL152      0.0521
    910 H           1.7829    9.2491   20.9167 H     152  UNL152      0.0521
    911 H           1.7655   10.7223   21.9208 H     152  UNL152      0.0521
    912 H           3.9484    8.9305   21.5945 H     152  UNL152      0.2090
    913 O           2.2989    9.9111   25.1242 O.3   153  UNL153     -0.3982
    914 C           3.5817    9.5002   24.6883 C.3   153  UNL153      0.0330
    915 H           4.1426    9.0950   25.5342 H     153  UNL153      0.0521
    916 H           4.1129   10.3540   24.2606 H     153  UNL153      0.0521
    917 H           3.4668    8.7262   23.9258 H     153  UNL153      0.0521
    918 H           2.4330   10.5976   25.7997 H     153  UNL153      0.2090
    919 O           2.6632   10.8702   28.1500 O.3   154  UNL154     -0.3982
    920 C           1.3901   10.2553   28.2247 C.3   154  UNL154      0.0330
    921 H           1.5013    9.2266   28.5765 H     154  UNL154      0.0521
    922 H           0.9212   10.2654   27.2377 H     154  UNL154      0.0521
    923 H           0.7668   10.8131   28.9274 H     154  UNL154      0.0521
    924 H           3.1934   10.3536   27.5195 H     154  UNL154      0.2090
    925 O           3.3383    9.1414   32.2060 O.3   155  UNL155     -0.3982
    926 C           3.4050    9.7681   30.9382 C.3   155  UNL155      0.0330
    927 H           2.7647   10.6537   30.9344 H     155  UNL155      0.0521
    928 H           3.0794    9.0665   30.1664 H     155  UNL155      0.0521
    929 H           4.4377   10.0670   30.7436 H     155  UNL155      0.0521
    930 H           2.4109    8.8874   32.3507 H     155  UNL155      0.2090
    931 O           1.0085   10.3029   36.0721 O.3   156  UNL156     -0.3982
    932 C           1.8448    9.3598   35.4275 C.3   156  UNL156      0.0330
    933 H           2.8380    9.3810   35.8828 H     156  UNL156      0.0521
    934 H           1.9147    9.6004   34.3639 H     156  UNL156      0.0521
    935 H           1.4134    8.3630   35.5457 H     156  UNL156      0.0521
    936 H           1.4166   11.1770   35.9502 H     156  UNL156      0.2090
    937 O           2.2830   13.9101    0.0211 O.3   157  UNL157     -0.3982
    938 C           1.0892   13.1538   -0.0650 C.3   157  UNL157      0.0330
    939 H           1.2929   12.1168    0.2135 H     157  UNL157      0.0521
    940 H           0.7012   13.1987   -1.0855 H     157  UNL157      0.0521
    941 H           0.3515   13.5750    0.6219 H     157  UNL157      0.0521
    942 H           2.9181   13.5129   -0.5990 H     157  UNL157      0.2090
    943 O           3.4448   13.0854    3.4819 O.3   158  UNL158     -0.3982
    944 C           2.2174   12.9312    2.7932 C.3   158  UNL158      0.0330
    945 H           1.8096   13.9151    2.5487 H     158  UNL158      0.0521
    946 H           1.5135   12.3789    3.4205 H     158  UNL158      0.0521
    947 H           2.3952   12.3734    1.8708 H     158  UNL158      0.0521
    948 H           3.2554   13.5835    4.2952 H     158  UNL158      0.2090
    949 O           2.0018   12.0903    6.5286 O.3   159  UNL159     -0.3982
    950 C           1.5804   13.4106    6.2396 C.3   159  UNL159      0.0330
    951 H           0.8106   13.7131    6.9539 H     159  UNL159      0.0521
    952 H           1.1851   13.4533    5.2218 H     159  UNL159      0.0521
    953 H           2.4371   14.0834    6.3239 H     159  UNL159      0.0521
    954 H           1.2210   11.5166    6.4458 H     159  UNL159      0.2090
    955 O           2.1503   13.9478   10.4402 O.3   160  UNL160     -0.3982
    956 C           1.9297   13.8719    9.0437 C.3   160  UNL160      0.0330
    957 H           1.1229   14.5538    8.7637 H     160  UNL160      0.0521
    958 H           1.6663   12.8471    8.7708 H     160  UNL160      0.0521
    959 H           2.8456   14.1612    8.5231 H     160  UNL160      0.0521
    960 H           1.3211   13.6856   10.8751 H     160  UNL160      0.2090
    961 O           3.8982   13.2209   11.9368 O.3   161  UNL161     -0.3982
    962 C           3.1184   12.0945   12.2942 C.3   161  UNL161      0.0330
    963 H           2.0578   12.3366   12.1902 H     161  UNL161      0.0521
    964 H           3.3387   11.8103   13.3260 H     161  UNL161      0.0521
    965 H           3.3673   11.2644   11.6289 H     161  UNL161      0.0521
    966 H           3.6555   13.9406   12.5439 H     161  UNL161      0.2090
    967 O           2.3786   13.9106   14.8273 O.3   162  UNL162     -0.3982
    968 C           1.0778   13.3968   14.6070 C.3   162  UNL162      0.0330
    969 H           1.1033   12.3053   14.6544 H     162  UNL162      0.0521
    970 H           0.7180   13.7213   13.6276 H     162  UNL162      0.0521
    971 H           0.4094   13.7776   15.3827 H     162  UNL162      0.0521
    972 H           2.9488   13.5557   14.1241 H     162  UNL162      0.2090
    973 O           2.1771   13.4799   19.1949 O.3   163  UNL163     -0.3982
    974 C           0.9720   12.9961   18.6309 C.3   163  UNL163      0.0330
    975 H           0.9918   11.9036   18.6087 H     163  UNL163      0.0521
    976 H           0.8591   13.3897   17.6178 H     163  UNL163      0.0521
    977 H           0.1327   13.3308   19.2451 H     163  UNL163      0.0521
    978 H           2.9032   13.1672   18.6288 H     163  UNL163      0.2090
    979 O           2.5184   13.4498   21.9617 O.3   164  UNL164     -0.3982
    980 C           1.1032   13.4866   21.9400 C.3   164  UNL164      0.0330
    981 H           0.7070   12.6183   22.4722 H     164  UNL164      0.0521
    982 H           0.7537   13.4836   20.9047 H     164  UNL164      0.0521
    983 H           0.7640   14.4001   22.4341 H     164  UNL164      0.0521
    984 H           2.7897   12.6289   21.5167 H     164  UNL164      0.2090
    985 O           2.0809   12.3362   24.6335 O.3   165  UNL165     -0.3982
    986 C           1.5506   13.5872   25.0311 C.3   165  UNL165      0.0330
    987 H           0.7786   13.4326   25.7891 H     165  UNL165      0.0521
    988 H           1.1265   14.0968   24.1625 H     165  UNL165      0.0521
    989 H           2.3542   14.1963   25.4517 H     165  UNL165      0.0521
    990 H           1.3452   11.8182   24.2647 H     165  UNL165      0.2090
    991 O           2.1213   13.1195   29.0995 O.3   166  UNL166     -0.3982
    992 C           1.7799   13.5346   27.7897 C.3   166  UNL166      0.0330
    993 H           0.7948   14.0077   27.8015 H     166  UNL166      0.0521
    994 H           1.7722   12.6692   27.1226 H     166  UNL166      0.0521
    995 H           2.5234   14.2548   27.4401 H     166  UNL166      0.0521
    996 H           1.4443   12.4815   29.3825 H     166  UNL166      0.2090
    997 O           2.2355   13.8292   31.3599 O.3   167  UNL167     -0.3982
    998 C           1.0271   14.5476   31.1918 C.3   167  UNL167      0.0330
    999 H           0.3409   14.3040   32.0067 H     167  UNL167      0.0521
   1000 H           0.5769   14.2851   30.2313 H     167  UNL167      0.0521
   1001 H           1.2448   15.6180   31.2092 H     167  UNL167      0.0521
   1002 H           2.0107   12.8834   31.3401 H     167  UNL167      0.2090
   1003 O           3.3624   11.5368   33.4496 O.3   168  UNL168     -0.3982
   1004 C           2.4079   12.5356   33.7589 C.3   168  UNL168      0.0330
   1005 H           1.5110   12.3839   33.1532 H     168  UNL168      0.0521
   1006 H           2.8333   13.5219   33.5585 H     168  UNL168      0.0521
   1007 H           2.1469   12.4621   34.8172 H     168  UNL168      0.0521
   1008 H           3.5744   11.6270   32.5049 H     168  UNL168      0.2090
   1009 O           1.7933   15.5887   -2.0393 O.3   169  UNL169     -0.3982
   1010 C           1.6414   16.5840   -1.0438 C.3   169  UNL169      0.0330
   1011 H           1.5006   16.1082   -0.0701 H     169  UNL169      0.0521
   1012 H           0.7792   17.2111   -1.2830 H     169  UNL169      0.0521
   1013 H           2.5424   17.2014   -1.0184 H     169  UNL169      0.0521
   1014 H           0.9791   15.0571   -2.0383 H     169  UNL169      0.2090
   1015 O           2.2277   16.3543    2.1212 O.3   170  UNL170     -0.3982
   1016 C           2.0123   16.3851    3.5202 C.3   170  UNL170      0.0330
   1017 H           2.0383   15.3669    3.9163 H     170  UNL170      0.0521
   1018 H           1.0435   16.8447    3.7305 H     170  UNL170      0.0521
   1019 H           2.8028   16.9762    3.9885 H     170  UNL170      0.0521
   1020 H           1.5113   15.8233    1.7335 H     170  UNL170      0.2090
   1021 O           2.5123   16.4375    6.1800 O.3   171  UNL171     -0.3982
   1022 C           1.1162   16.4208    6.4152 C.3   171  UNL171      0.0330
   1023 H           0.8551   15.5363    7.0015 H     171  UNL171      0.0521
   1024 H           0.5852   16.4079    5.4603 H     171  UNL171      0.0521
   1025 H           0.8389   17.3191    6.9717 H     171  UNL171      0.0521
   1026 H           2.7283   15.6289    5.6849 H     171  UNL171      0.2090
   1027 O           2.4757   16.8473    9.1925 O.3   172  UNL172     -0.3982
   1028 C           1.1190   16.6874    9.5642 C.3   172  UNL172      0.0330
   1029 H           1.0101   15.7839   10.1694 H     172  UNL172      0.0521
   1030 H           0.5005   16.6140    8.6663 H     172  UNL172      0.0521
   1031 H           0.8062   17.5553   10.1495 H     172  UNL172      0.0521
   1032 H           2.7245   16.0626    8.6748 H     172  UNL172      0.2090
   1033 O           1.2008   16.8790   11.8700 O.3   173  UNL173     -0.3982
   1034 C           2.5391   16.4173   11.8875 C.3   173  UNL173      0.0330
   1035 H           2.6855   15.7539   12.7435 H     173  UNL173      0.0521
   1036 H           3.2188   17.2703   11.9535 H     173  UNL173      0.0521
   1037 H           2.7371   15.8670   10.9647 H     173  UNL173      0.0521
   1038 H           1.0547   17.3630   12.7006 H     173  UNL173      0.2090
   1039 O           2.0903   15.8401   16.3345 O.3   174  UNL174     -0.3982
   1040 C           1.8201   16.7562   15.2894 C.3   174  UNL174      0.0330
   1041 H           1.0596   17.4696   15.6165 H     174  UNL174      0.0521
   1042 H           1.4699   16.2124   14.4086 H     174  UNL174      0.0521
   1043 H           2.7384   17.2937   15.0418 H     174  UNL174      0.0521
   1044 H           1.2577   15.3785   16.5322 H     174  UNL174      0.2090
   1045 O           2.0313   15.8774   18.9854 O.3   175  UNL175     -0.3982
   1046 C           1.6630   17.2414   19.0771 C.3   175  UNL175      0.0330
   1047 H           0.6327   17.3184   19.4332 H     175  UNL175      0.0521
   1048 H           1.7565   17.7117   18.0952 H     175  UNL175      0.0521
   1049 H           2.3289   17.7424   19.7835 H     175  UNL175      0.0521
   1050 H           1.4234   15.4593   18.3519 H     175  UNL175      0.2090
   1051 O           3.6792   16.4005   21.6892 O.3   176  UNL176     -0.3982
   1052 C           2.2812   16.1888   21.7599 C.3   176  UNL176      0.0330
   1053 H           2.0182   15.8138   22.7522 H     176  UNL176      0.0521
   1054 H           1.9819   15.4679   20.9952 H     176  UNL176      0.0521
   1055 H           1.7688   17.1374   21.5837 H     176  UNL176      0.0521
   1056 H           4.1067   15.5420   21.8494 H     176  UNL176      0.2090
   1057 O           4.0660   15.4822   24.8968 O.3   177  UNL177     -0.3982
   1058 C           3.2048   16.5946   25.0563 C.3   177  UNL177      0.0330
   1059 H           2.1706   16.2487   25.1271 H     177  UNL177      0.0521
   1060 H           3.3172   17.2686   24.2036 H     177  UNL177      0.0521
   1061 H           3.4736   17.1233   25.9738 H     177  UNL177      0.0521
   1062 H           3.8036   15.0332   24.0751 H     177  UNL177      0.2090
   1063 O           2.4884   16.7552   27.8688 O.3   178  UNL178     -0.3982
   1064 C           1.1457   16.6865   28.3125 C.3   178  UNL178      0.0330
   1065 H           0.9409   15.6869   28.7038 H     178  UNL178      0.0521
   1066 H           0.4741   16.9079   27.4794 H     178  UNL178      0.0521
   1067 H           0.9951   17.4235   29.1048 H     178  UNL178      0.0521
   1068 H           2.5917   16.0905   27.1666 H     178  UNL178      0.2090
   1069 O           3.5152   16.2531   30.1476 O.3   179  UNL179     -0.3982
   1070 C           3.6538   16.2102   31.5559 C.3   179  UNL179      0.0330
   1071 H           4.1699   15.2911   31.8443 H     179  UNL179      0.0521
   1072 H           2.6659   16.2474   32.0214 H     179  UNL179      0.0521
   1073 H           4.2404   17.0724   31.8816 H     179  UNL179      0.0521
   1074 H           2.9907   15.4764   29.8883 H     179  UNL179      0.2090
   1075 O           1.6865   15.4705   35.5818 O.3   180  UNL180     -0.3982
   1076 C           1.3908   16.8531   35.5083 C.3   180  UNL180      0.0330
   1077 H           0.4059   17.0396   35.9434 H     180  UNL180      0.0521
   1078 H           1.4066   17.1749   34.4642 H     180  UNL180      0.0521
   1079 H           2.1459   17.4082   36.0698 H     180  UNL180      0.0521
   1080 H           1.0002   15.0042   35.0748 H     180  UNL180      0.2090
   1081 O           2.9436   19.3776    0.6372 O.3   181  UNL181     -0.3982
   1082 C           1.6625   19.7777    0.1864 C.3   181  UNL181      0.0330
   1083 H           0.8939   19.2293    0.7367 H     181  UNL181      0.0521
   1084 H           1.5727   19.5768   -0.8839 H     181  UNL181      0.0521
   1085 H           1.5414   20.8486    0.3652 H     181  UNL181      0.0521
   1086 H           3.0218   18.4237    0.4655 H     181  UNL181      0.2090
   1087 O           2.0062   18.8747    2.9789 O.3   182  UNL182     -0.3982
   1088 C           1.5739   20.1837    3.3018 C.3   182  UNL182      0.0330
   1089 H           0.7384   20.1295    4.0042 H     182  UNL182      0.0521
   1090 H           1.2648   20.7014    2.3906 H     182  UNL182      0.0521
   1091 H           2.4012   20.7271    3.7642 H     182  UNL182      0.0521
   1092 H           1.2515   18.4172    2.5706 H     182  UNL182      0.2090
   1093 O           2.1606   19.5120    5.7608 O.3   183  UNL183     -0.3982
   1094 C           1.9019   20.8080    6.2689 C.3   183  UNL183      0.0330
   1095 H           2.6221   21.0418    7.0569 H     183  UNL183      0.0521
   1096 H           0.8849   20.8481    6.6664 H     183  UNL183      0.0521
   1097 H           2.0030   21.5340    5.4588 H     183  UNL183      0.0521
   1098 H           2.0634   18.8899    6.5018 H     183  UNL183      0.2090
   1099 O           2.2082   19.2029    9.0016 O.3   184  UNL184     -0.3982
   1100 C           1.6390   20.3499    9.6056 C.3   184  UNL184      0.0330
   1101 H           0.8522   20.0447   10.2999 H     184  UNL184      0.0521
   1102 H           1.2250   21.0022    8.8329 H     184  UNL184      0.0521
   1103 H           2.4174   20.8862   10.1534 H     184  UNL184      0.0521
   1104 H           1.4942   18.7479    8.5232 H     184  UNL184      0.2090
   1105 O           1.8417   19.0089   11.6817 O.3   185  UNL185     -0.3982
   1106 C           2.0352   19.1991   13.0712 C.3   185  UNL185      0.0330
   1107 H           2.6574   20.0823   13.2359 H     185  UNL185      0.0521
   1108 H           2.5176   18.3159   13.4970 H     185  UNL185      0.0521
   1109 H           1.0635   19.3466   13.5484 H     185  UNL185      0.0521
   1110 H           2.7205   18.8808   11.2857 H     185  UNL185      0.2090
   1111 O           2.5063   19.7151   15.8183 O.3   186  UNL186     -0.3982
   1112 C           1.1188   19.6453   16.0915 C.3   186  UNL186      0.0330
   1113 H           0.8885   18.6906   16.5708 H     186  UNL186      0.0521
   1114 H           0.5577   19.7418   15.1588 H     186  UNL186      0.0521
   1115 H           0.8475   20.4628   16.7636 H     186  UNL186      0.0521
   1116 H           2.7171   18.9780   15.2202 H     186  UNL186      0.2090
   1117 O           3.5112   19.2885   18.9109 O.3   187  UNL187     -0.3982
   1118 C           2.5627   20.3392   18.8828 C.3   187  UNL187      0.0330
   1119 H           1.5545   19.9200   18.8359 H     187  UNL187      0.0521
   1120 H           2.7460   20.9735   18.0122 H     187  UNL187      0.0521
   1121 H           2.6653   20.9349   19.7929 H     187  UNL187      0.0521
   1122 H           3.3962   18.7778   18.0915 H     187  UNL187      0.2090
   1123 O           2.4253   19.6244   22.8312 O.3   188  UNL188     -0.3982
   1124 C           1.1150   19.8148   22.3297 C.3   188  UNL188      0.0330
   1125 H           0.4804   18.9811   22.6402 H     188  UNL188      0.0521
   1126 H           1.1467   19.8761   21.2392 H     188  UNL188      0.0521
   1127 H           0.7121   20.7466   22.7333 H     188  UNL188      0.0521
   1128 H           2.7564   18.7906   22.4560 H     188  UNL188      0.2090
   1129 O           2.2455   18.8459   25.1528 O.3   189  UNL189     -0.3982
   1130 C           1.6188   20.0888   25.4113 C.3   189  UNL189      0.0330
   1131 H           0.7679   19.9368   26.0800 H     189  UNL189      0.0521
   1132 H           1.2820   20.5307   24.4704 H     189  UNL189      0.0521
   1133 H           2.3392   20.7576   25.8881 H     189  UNL189      0.0521
   1134 H           1.5824   18.2740   24.7300 H     189  UNL189      0.2090
   1135 O           3.5006   19.6905   27.6372 O.3   190  UNL190     -0.3982
   1136 C           2.1997   19.4250   28.1289 C.3   190  UNL190      0.0330
   1137 H           2.2705   18.8865   29.0772 H     190  UNL190      0.0521
   1138 H           1.6482   18.8277   27.3987 H     190  UNL190      0.0521
   1139 H           1.6799   20.3725   28.2884 H     190  UNL190      0.0521
   1140 H           3.9371   18.8316   27.5055 H     190  UNL190      0.2090
   1141 O           2.1081   18.7866   31.2859 O.3   191  UNL191     -0.3982
   1142 C           1.9149   20.1887   31.3222 C.3   191  UNL191      0.0330
   1143 H           0.9344   20.4114   31.7504 H     191  UNL191      0.0521
   1144 H           1.9823   20.5930   30.3093 H     191  UNL191      0.0521
   1145 H           2.6923   20.6385   31.9442 H     191  UNL191      0.0521
   1146 H           1.4040   18.4156   30.7272 H     191  UNL191      0.2090
   1147 O           3.5673   18.5519   34.9556 O.3   192  UNL192     -0.3982
   1148 C           2.5527   19.5377   35.0131 C.3   192  UNL192      0.0330
   1149 H           3.0064   20.5205   35.1631 H     192  UNL192      0.0521
   1150 H           1.8692   19.3108   35.8349 H     192  UNL192      0.0521
   1151 H           1.9999   19.5340   34.0708 H     192  UNL192      0.0521
   1152 H           4.0403   18.5788   35.8048 H     192  UNL192      0.2090
   1153 O           2.4581   22.5458   -1.9216 O.3   193  UNL193     -0.3982
   1154 C           1.2831   23.1529   -1.4163 C.3   193  UNL193      0.0330
   1155 H           1.3749   23.2825   -0.3351 H     193  UNL193      0.0521
   1156 H           0.4194   22.5246   -1.6467 H     193  UNL193      0.0521
   1157 H           1.1566   24.1298   -1.8887 H     193  UNL193      0.0521
   1158 H           2.5437   21.6814   -1.4845 H     193  UNL193      0.2090
   1159 O           2.3115   23.0189    2.7095 O.3   194  UNL194     -0.3982
   1160 C           1.1343   23.3843    3.4062 C.3   194  UNL194      0.0330
   1161 H           0.7875   22.5391    4.0059 H     194  UNL194      0.0521
   1162 H           0.3626   23.6779    2.6904 H     194  UNL194      0.0521
   1163 H           1.3580   24.2275    4.0639 H     194  UNL194      0.0521
   1164 H           2.0820   22.2691    2.1345 H     194  UNL194      0.2090
   1165 O           2.3843   24.2366    5.9870 O.3   195  UNL195     -0.3982
   1166 C           1.0605   24.3366    6.4792 C.3   195  UNL195      0.0330
   1167 H           0.8200   23.4453    7.0640 H     195  UNL195      0.0521
   1168 H           0.3658   24.4342    5.6414 H     195  UNL195      0.0521
   1169 H           0.9845   25.2200    7.1174 H     195  UNL195      0.0521
   1170 H           2.4209   23.4442    5.4245 H     195  UNL195      0.2090
   1171 O           2.2043   23.4216    8.9340 O.3   196  UNL196     -0.3982
   1172 C           1.2064   24.1619    9.6128 C.3   196  UNL196      0.0330
   1173 H           0.7274   23.5273   10.3626 H     196  UNL196      0.0521
   1174 H           0.4644   24.5190    8.8945 H     196  UNL196      0.0521
   1175 H           1.6730   25.0173   10.1070 H     196  UNL196      0.0521
   1176 H           1.7606   22.6699    8.5057 H     196  UNL196      0.2090
   1177 O           1.3154   25.8067   13.4673 O.3   197  UNL197     -0.3982
   1178 C           1.4458   24.9626   12.3381 C.3   197  UNL197      0.0330
   1179 H           2.4418   25.0833   11.9048 H     197  UNL197      0.0521
   1180 H           0.6821   25.2195   11.6000 H     197  UNL197      0.0521
   1181 H           1.3109   23.9251   12.6526 H     197  UNL197      0.0521
   1182 H           1.4399   26.7199   13.1572 H     197  UNL197      0.2090
   1183 O           2.4505   23.5569   16.0173 O.3   198  UNL198     -0.3982
   1184 C           1.1781   23.9187   15.5125 C.3   198  UNL198      0.0330
   1185 H           0.4057   23.6356   16.2319 H     198  UNL198      0.0521
   1186 H           1.0062   23.4130   14.5592 H     198  UNL198      0.0521
   1187 H           1.1512   25.0000   15.3588 H     198  UNL198      0.0521
   1188 H           2.4442   22.5928   16.1434 H     198  UNL198      0.2090
   1189 O           1.3529   22.9359   18.8246 O.3   199  UNL199     -0.3982
   1190 C           1.3950   24.3408   18.6548 C.3   199  UNL199      0.0330
   1191 H           0.7515   24.6272   17.8192 H     199  UNL199      0.0521
   1192 H           2.4236   24.6545   18.4607 H     199  UNL199      0.0521
   1193 H           1.0366   24.8201   19.5688 H     199  UNL199      0.0521
   1194 H           1.6764   22.5384   17.9982 H     199  UNL199      0.2090
   1195 O           2.2912   22.4991   21.8678 O.3   200  UNL200     -0.3982
   1196 C           1.7330   23.6987   22.3719 C.3   200  UNL200      0.0330
   1197 H           0.8205   23.4713   22.9286 H     200  UNL200      0.0521
   1198 H           1.5080   24.3735   21.5425 H     200  UNL200      0.0521
   1199 H           2.4557   24.1737   23.0395 H     200  UNL200      0.0521
   1200 H           1.6276   22.1005   21.2793 H     200  UNL200      0.2090
   1201 O           2.2654   22.5897   24.8023 O.3   201  UNL201     -0.3982
   1202 C           1.3298   23.1898   25.6792 C.3   201  UNL201      0.0330
   1203 H           0.7247   22.4138   26.1545 H     201  UNL201      0.0521
   1204 H           0.6889   23.8735   25.1172 H     201  UNL201      0.0521
   1205 H           1.8702   23.7487   26.4469 H     201  UNL201      0.0521
   1206 H           1.7568   22.1013   24.1327 H     201  UNL201      0.2090
   1207 O           3.5040   23.7281   27.7392 O.3   202  UNL202     -0.3982
   1208 C           3.3066   22.3291   27.8298 C.3   202  UNL202      0.0330
   1209 H           2.2962   22.0803   27.4961 H     202  UNL202      0.0521
   1210 H           3.4502   22.0063   28.8639 H     202  UNL202      0.0521
   1211 H           4.0340   21.8254   27.1889 H     202  UNL202      0.0521
   1212 H           2.8449   24.1477   28.3180 H     202  UNL202      0.2090
   1213 O           1.2542   24.1606   30.2186 O.3   203  UNL203     -0.3982
   1214 C           1.6850   23.6571   31.4698 C.3   203  UNL203      0.0330
   1215 H           1.1645   22.7207   31.6855 H     203  UNL203      0.0521
   1216 H           1.4747   24.3916   32.2510 H     203  UNL203      0.0521
   1217 H           2.7608   23.4719   31.4270 H     203  UNL203      0.0521
   1218 H           0.2967   24.3151   30.2872 H     203  UNL203      0.2090
   1219 O           2.0457   23.0749   35.4063 O.3   204  UNL204     -0.3982
   1220 C           1.1100   24.1309   35.2880 C.3   204  UNL204      0.0330
   1221 H           0.1747   23.8467   35.7766 H     204  UNL204      0.0521
   1222 H           0.9314   24.3439   34.2312 H     204  UNL204      0.0521
   1223 H           1.5161   25.0215   35.7733 H     204  UNL204      0.0521
   1224 H           1.6579   22.2990   34.9668 H     204  UNL204      0.2090
   1225 O           2.9904   26.9101   -0.0851 O.3   205  UNL205     -0.3982
   1226 C           2.8582   25.5076   -0.2258 C.3   205  UNL205      0.0330
   1227 H           1.8147   25.2217   -0.0721 H     205  UNL205      0.0521
   1228 H           3.4961   25.0054    0.5055 H     205  UNL205      0.0521
   1229 H           3.1676   25.2209   -1.2336 H     205  UNL205      0.0521
   1230 H           2.7089   27.1344    0.8182 H     205  UNL205      0.2090
   1231 O           4.0303   26.4929    2.7178 O.3   206  UNL206     -0.3982
   1232 C           2.9281   25.7943    3.2670 C.3   206  UNL206      0.0330
   1233 H           3.2902   24.9869    3.9083 H     206  UNL206      0.0521
   1234 H           2.3155   25.3859    2.4595 H     206  UNL206      0.0521
   1235 H           2.3284   26.4876    3.8614 H     206  UNL206      0.0521
   1236 H           4.5434   25.8524    2.1963 H     206  UNL206      0.2090
   1237 O           4.0018   26.2168    6.0210 O.3   207  UNL207     -0.3982
   1238 C           3.1398   27.2956    6.3331 C.3   207  UNL207      0.0330
   1239 H           2.7788   27.7540    5.4090 H     207  UNL207      0.0521
   1240 H           3.6799   28.0334    6.9315 H     207  UNL207      0.0521
   1241 H           2.2898   26.9171    6.9056 H     207  UNL207      0.0521
   1242 H           4.7459   26.5832    5.5134 H     207  UNL207      0.2090
   1243 O           4.0522   25.4757   10.0427 O.3   208  UNL208     -0.3982
   1244 C           3.2637   26.0739    9.0303 C.3   208  UNL208      0.0330
   1245 H           2.3483   26.4770    9.4706 H     208  UNL208      0.0521
   1246 H           3.0176   25.3281    8.2706 H     208  UNL208      0.0521
   1247 H           3.8322   26.8856    8.5703 H     208  UNL208      0.0521
   1248 H           3.5219   24.7598   10.4323 H     208  UNL208      0.2090
   1249 O           2.5465   28.0515   11.8034 O.3   209  UNL209     -0.3982
   1250 C           3.4823   27.5885   12.7597 C.3   209  UNL209      0.0330
   1251 H           4.4688   28.0015   12.5351 H     209  UNL209      0.0521
   1252 H           3.5186   26.4966   12.7361 H     209  UNL209      0.0521
   1253 H           3.1687   27.9191   13.7526 H     209  UNL209      0.0521
   1254 H           2.8510   27.7430   10.9330 H     209  UNL209      0.2090
   1255 O           2.6244   26.5861   15.8624 O.3   210  UNL210     -0.3982
   1256 C           3.6392   25.7523   15.3338 C.3   210  UNL210      0.0330
   1257 H           3.1837   24.9429   14.7578 H     210  UNL210      0.0521
   1258 H           4.2364   25.3408   16.1512 H     210  UNL210      0.0521
   1259 H           4.2815   26.3458   14.6791 H     210  UNL210      0.0521
   1260 H           2.0708   26.0321   16.4388 H     210  UNL210      0.2090
   1261 O           0.9089   27.9676   19.8435 O.3   211  UNL211     -0.3982
   1262 C           1.4549   27.6225   18.5836 C.3   211  UNL211      0.0330
   1263 H           1.5053   26.5346   18.4929 H     211  UNL211      0.0521
   1264 H           2.4545   28.0535   18.4884 H     211  UNL211      0.0521
   1265 H           0.8117   28.0223   17.7961 H     211  UNL211      0.0521
   1266 H           1.5006   27.5997   20.5218 H     211  UNL211      0.2090
   1267 O           3.7156   25.7526   20.6869 O.3   212  UNL212     -0.3982
   1268 C           3.8472   26.0265   22.0697 C.3   212  UNL212      0.0330
   1269 H           4.3962   25.2142   22.5524 H     212  UNL212      0.0521
   1270 H           2.8557   26.1273   22.5180 H     212  UNL212      0.0521
   1271 H           4.3984   26.9613   22.1959 H     212  UNL212      0.0521
   1272 H           3.2229   24.9182   20.6065 H     212  UNL212      0.2090
   1273 O           2.2798   26.2010   24.5315 O.3   213  UNL213     -0.3982
   1274 C           3.5832   25.9134   25.0034 C.3   213  UNL213      0.0330
   1275 H           4.1059   25.2884   24.2750 H     213  UNL213      0.0521
   1276 H           3.5180   25.3957   25.9635 H     213  UNL213      0.0521
   1277 H           4.1288   26.8509   25.1339 H     213  UNL213      0.0521
   1278 H           1.8202   25.3507   24.4255 H     213  UNL213      0.2090
   1279 O           2.5154   27.9517   28.4920 O.3   214  UNL214     -0.3982
   1280 C           3.6949   27.3275   28.0190 C.3   214  UNL214      0.0330
   1281 H           3.9952   27.7837   27.0724 H     214  UNL214      0.0521
   1282 H           3.5119   26.2593   27.8791 H     214  UNL214      0.0521
   1283 H           4.4898   27.4653   28.7557 H     214  UNL214      0.0521
   1284 H           1.8286   27.8127   27.8178 H     214  UNL214      0.2090
   1285 O           3.9522   25.6688   30.2395 O.3   215  UNL215     -0.3982
   1286 C           3.2615   26.0484   31.4156 C.3   215  UNL215      0.0330
   1287 H           3.3808   25.2724   32.1759 H     215  UNL215      0.0521
   1288 H           2.2023   26.1901   31.1875 H     215  UNL215      0.0521
   1289 H           3.6807   26.9865   31.7868 H     215  UNL215      0.0521
   1290 H           3.5585   24.8339   29.9338 H     215  UNL215      0.2090
   1291 O           1.2684   26.6478   33.4391 O.3   216  UNL216     -0.3982
   1292 C           1.9323   27.3777   34.4544 C.3   216  UNL216      0.0330
   1293 H           1.2244   28.0532   34.9412 H     216  UNL216      0.0521
   1294 H           2.7543   27.9486   34.0157 H     216  UNL216      0.0521
   1295 H           2.3310   26.6778   35.1924 H     216  UNL216      0.0521
   1296 H           0.9256   27.2950   32.7995 H     216  UNL216      0.2090
   1297 O           5.5985   -0.2119   -0.2129 O.3   217  UNL217     -0.3982
   1298 C           5.0369   -0.0191   -1.4982 C.3   217  UNL217      0.0330
   1299 H           4.0920    0.5223   -1.4065 H     217  UNL217      0.0521
   1300 H           4.8687   -0.9890   -1.9725 H     217  UNL217      0.0521
   1301 H           5.7318    0.5654   -2.1056 H     217  UNL217      0.0521
   1302 H           4.9599   -0.7332    0.3027 H     217  UNL217      0.2090
   1303 O           6.1161   -1.1291    3.2396 O.3   218  UNL218     -0.3982
   1304 C           4.7344   -1.0994    2.9322 C.3   218  UNL218      0.0330
   1305 H           4.1533   -1.1709    3.8550 H     218  UNL218      0.0521
   1306 H           4.4897   -1.9329    2.2694 H     218  UNL218      0.0521
   1307 H           4.5023   -0.1572    2.4302 H     218  UNL218      0.0521
   1308 H           6.2919   -1.9760    3.6839 H     218  UNL218      0.2090
   1309 O           5.2838   -1.2007    5.8340 O.3   219  UNL219     -0.3982
   1310 C           5.4386    0.1992    5.9777 C.3   219  UNL219      0.0330
   1311 H           6.1318    0.4080    6.7963 H     219  UNL219      0.0521
   1312 H           4.4670    0.6548    6.1836 H     219  UNL219      0.0521
   1313 H           5.8413    0.6094    5.0486 H     219  UNL219      0.0521
   1314 H           4.9252   -1.5362    6.6733 H     219  UNL219      0.2090
   1315 O           5.7940   -1.0670    9.0620 O.3   220  UNL220     -0.3982
   1316 C           4.4373   -1.1196    9.4633 C.3   220  UNL220      0.0330
   1317 H           4.2841   -1.9786   10.1214 H     220  UNL220      0.0521
   1318 H           3.7985   -1.2046    8.5809 H     220  UNL220      0.0521
   1319 H           4.1903   -0.2019   10.0022 H     220  UNL220      0.0521
   1320 H           5.9837   -1.8938    8.5868 H     220  UNL220      0.2090
   1321 O           4.4102   -0.0520   12.7331 O.3   221  UNL221     -0.3982
   1322 C           5.7819   -0.2947   12.4805 C.3   221  UNL221      0.0330
   1323 H           6.3349    0.6465   12.5319 H     221  UNL221      0.0521
   1324 H           5.8972   -0.7437   11.4910 H     221  UNL221      0.0521
   1325 H           6.1664   -0.9824   13.2373 H     221  UNL221      0.0521
   1326 H           4.0972    0.5609   12.0461 H     221  UNL221      0.2090
   1327 O           5.2827   -1.2092   15.5861 O.3   222  UNL222     -0.3982
   1328 C           5.5771    0.1756   15.5745 C.3   222  UNL222      0.0330
   1329 H           4.6518    0.7448   15.4551 H     222  UNL222      0.0521
   1330 H           6.2620    0.3965   14.7522 H     222  UNL222      0.0521
   1331 H           6.0492    0.4465   16.5217 H     222  UNL222      0.0521
   1332 H           4.8650   -1.4197   14.7336 H     222  UNL222      0.2090
   1333 O           4.8659   -1.2302   18.5912 O.3   223  UNL223     -0.3982
   1334 C           4.6887    0.1593   18.7969 C.3   223  UNL223      0.0330
   1335 H           4.4702    0.6449   17.8426 H     223  UNL223      0.0521
   1336 H           5.5965    0.5825   19.2339 H     223  UNL223      0.0521
   1337 H           3.8514    0.3132   19.4816 H     223  UNL223      0.0521
   1338 H           5.6150   -1.3353   17.9801 H     223  UNL223      0.2090
   1339 O           5.2183   -1.0198   21.1296 O.3   224  UNL224     -0.3982
   1340 C           5.0802    0.2197   21.7999 C.3   224  UNL224      0.0330
   1341 H           6.0282    0.4862   22.2738 H     224  UNL224      0.0521
   1342 H           4.2930    0.1416   22.5536 H     224  UNL224      0.0521
   1343 H           4.8102    0.9888   21.0725 H     224  UNL224      0.0521
   1344 H           5.4579   -1.6820   21.8001 H     224  UNL224      0.2090
   1345 O           6.9905   -0.9365   24.8449 O.3   225  UNL225     -0.3982
   1346 C           5.5907   -1.1434   24.8904 C.3   225  UNL225      0.0330
   1347 H           5.3252   -1.6411   25.8264 H     225  UNL225      0.0521
   1348 H           5.2843   -1.7568   24.0396 H     225  UNL225      0.0521
   1349 H           5.0866   -0.1755   24.8392 H     225  UNL225      0.0521
   1350 H           7.4105   -1.8123   24.8920 H     225  UNL225      0.2090
   1351 O           5.4080   -1.0985   28.3847 O.3   226  UNL226     -0.3982
   1352 C           5.1310    0.1940   27.8775 C.3   226  UNL226      0.0330
   1353 H           4.5379    0.7528   28.6057 H     226  UNL226      0.0521
   1354 H           4.5838    0.1072   26.9357 H     226  UNL226      0.0521
   1355 H           6.0743    0.7163   27.7015 H     226  UNL226      0.0521
   1356 H           4.5527   -1.5374   28.5308 H     226  UNL226      0.2090
   1357 O           6.0966    0.4734   30.9978 O.3   227  UNL227     -0.3982
   1358 C           4.9085   -0.2092   31.3539 C.3   227  UNL227      0.0330
   1359 H           4.8630   -1.1641   30.8244 H     227  UNL227      0.0521
   1360 H           4.0427    0.4050   31.0947 H     227  UNL227      0.0521
   1361 H           4.9131   -0.3923   32.4310 H     227  UNL227      0.0521
   1362 H           6.0639    0.6217   30.0373 H     227  UNL227      0.2090
   1363 O           5.8200   -1.1686   35.4858 O.3   228  UNL228     -0.3982
   1364 C           5.6066    0.2181   35.2961 C.3   228  UNL228      0.0330
   1365 H           4.5786    0.4701   35.5683 H     228  UNL228      0.0521
   1366 H           5.7918    0.4765   34.2507 H     228  UNL228      0.0521
   1367 H           6.2971    0.7744   35.9344 H     228  UNL228      0.0521
   1368 H           5.1937   -1.6358   34.9069 H     228  UNL228      0.2090
   1369 O           7.6035    3.8439   -1.6014 O.3   229  UNL229     -0.3982
   1370 C           6.6590    3.0336   -0.9263 C.3   229  UNL229      0.0330
   1371 H           7.1805    2.3461   -0.2557 H     229  UNL229      0.0521
   1372 H           6.0717    2.4717   -1.6566 H     229  UNL229      0.0521
   1373 H           5.9939    3.6743   -0.3426 H     229  UNL229      0.0521
   1374 H           8.1792    3.2480   -2.1104 H     229  UNL229      0.2090
   1375 O           5.3691    2.0007    3.3440 O.3   230  UNL230     -0.3982
   1376 C           5.1427    3.3405    2.9462 C.3   230  UNL230      0.0330
   1377 H           4.7089    3.9003    3.7786 H     230  UNL230      0.0521
   1378 H           4.4650    3.3574    2.0893 H     230  UNL230      0.0521
   1379 H           6.0959    3.7930    2.6631 H     230  UNL230      0.0521
   1380 H           4.5061    1.6257    3.5892 H     230  UNL230      0.2090
   1381 O           7.5948    2.6610    5.8827 O.3   231  UNL231     -0.3982
   1382 C           6.4699    3.3440    6.4047 C.3   231  UNL231      0.0330
   1383 H           5.7769    2.6231    6.8456 H     231  UNL231      0.0521
   1384 H           5.9749    3.8981    5.6034 H     231  UNL231      0.0521
   1385 H           6.8044    4.0427    7.1750 H     231  UNL231      0.0521
   1386 H           7.2668    2.0488    5.2021 H     231  UNL231      0.2090
   1387 O           5.4200    3.1508    9.1948 O.3   232  UNL232     -0.3982
   1388 C           5.2149    1.7765    9.4664 C.3   232  UNL232      0.0330
   1389 H           5.3404    1.1996    8.5468 H     232  UNL232      0.0521
   1390 H           4.2089    1.6296    9.8670 H     232  UNL232      0.0521
   1391 H           5.9501    1.4466   10.2041 H     232  UNL232      0.0521
   1392 H           4.7535    3.4146    8.5376 H     232  UNL232      0.2090
   1393 O           6.0827    3.4976   12.0274 O.3   233  UNL233     -0.3982
   1394 C           4.8380    3.1653   12.6146 C.3   233  UNL233      0.0330
   1395 H           4.9785    2.3555   13.3350 H     233  UNL233      0.0521
   1396 H           4.1374    2.8563   11.8351 H     233  UNL233      0.0521
   1397 H           4.4423    4.0437   13.1298 H     233  UNL233      0.0521
   1398 H           6.4088    2.6993   11.5780 H     233  UNL233      0.2090
   1399 O           7.0621    2.9659   14.5815 O.3   234  UNL234     -0.3982
   1400 C           6.7626    3.3905   15.8986 C.3   234  UNL234      0.0330
   1401 H           7.6301    3.9015   16.3238 H     234  UNL234      0.0521
   1402 H           6.5004    2.5242   16.5108 H     234  UNL234      0.0521
   1403 H           5.9161    4.0803   15.8657 H     234  UNL234      0.0521
   1404 H           7.8165    2.3554   14.6427 H     234  UNL234      0.2090
   1405 O           6.2259    3.1753   18.5265 O.3   235  UNL235     -0.3982
   1406 C           4.8160    3.2651   18.6182 C.3   235  UNL235      0.0330
   1407 H           4.5101    3.1567   19.6617 H     235  UNL235      0.0521
   1408 H           4.3597    2.4801   18.0102 H     235  UNL235      0.0521
   1409 H           4.4973    4.2419   18.2469 H     235  UNL235      0.0521
   1410 H           6.4788    2.2986   18.8627 H     235  UNL235      0.2090
   1411 O           6.9740    2.1325   21.3806 O.3   236  UNL236     -0.3982
   1412 C           7.0959    3.3308   22.1246 C.3   236  UNL236      0.0330
   1413 H           6.1754    3.5070   22.6867 H     236  UNL236      0.0521
   1414 H           7.2857    4.1651   21.4448 H     236  UNL236      0.0521
   1415 H           7.9323    3.2334   22.8207 H     236  UNL236      0.0521
   1416 H           6.2245    2.2489   20.7721 H     236  UNL236      0.2090
   1417 O           8.1062    1.9478   25.0954 O.3   237  UNL237     -0.3982
   1418 C           6.7153    1.9574   24.8315 C.3   237  UNL237      0.0330
   1419 H           6.1895    1.4177   25.6231 H     237  UNL237      0.0521
   1420 H           6.5237    1.4855   23.8648 H     237  UNL237      0.0521
   1421 H           6.3658    2.9922   24.8050 H     237  UNL237      0.0521
   1422 H           8.3872    1.0171   25.1129 H     237  UNL237      0.2090
   1423 O           6.5523    3.5782   27.6321 O.3   238  UNL238     -0.3982
   1424 C           5.3235    3.1406   28.1824 C.3   238  UNL238      0.0330
   1425 H           5.5154    2.3935   28.9566 H     238  UNL238      0.0521
   1426 H           4.7020    2.7113   27.3928 H     238  UNL238      0.0521
   1427 H           4.8075    3.9961   28.6246 H     238  UNL238      0.0521
   1428 H           6.9871    2.7981   27.2474 H     238  UNL238      0.2090
   1429 O           6.4600    2.7413   31.8258 O.3   239  UNL239     -0.3982
   1430 C           6.9247    3.3073   30.6141 C.3   239  UNL239      0.0330
   1431 H           7.1916    2.5093   29.9168 H     239  UNL239      0.0521
   1432 H           7.7953    3.9364   30.8152 H     239  UNL239      0.0521
   1433 H           6.1297    3.9176   30.1792 H     239  UNL239      0.0521
   1434 H           7.1864    2.2059   32.1881 H     239  UNL239      0.2090
   1435 O           6.1680    3.2104   34.3199 O.3   240  UNL240     -0.3982
   1436 C           4.7962    3.0039   34.6030 C.3   240  UNL240      0.0330
   1437 H           4.6939    2.5050   35.5700 H     240  UNL240      0.0521
   1438 H           4.3490    2.3918   33.8161 H     240  UNL240      0.0521
   1439 H           4.2914    3.9721   34.6398 H     240  UNL240      0.0521
   1440 H           6.5893    2.3345   34.2935 H     240  UNL240      0.2090
   1441 O           5.6698    6.3767   -0.0863 O.3   241  UNL241     -0.3982
   1442 C           5.5233    6.6109   -1.4749 C.3   241  UNL241      0.0330
   1443 H           4.5067    6.9543   -1.6822 H     241  UNL241      0.0521
   1444 H           5.7270    5.6886   -2.0243 H     241  UNL241      0.0521
   1445 H           6.2353    7.3804   -1.7824 H     241  UNL241      0.0521
   1446 H           5.0257    5.6901    0.1571 H     241  UNL241      0.2090
   1447 O           6.0392    5.9835    2.9101 O.3   242  UNL242     -0.3982
   1448 C           4.8296    6.5142    3.4199 C.3   242  UNL242      0.0330
   1449 H           4.0737    5.7260    3.4613 H     242  UNL242      0.0521
   1450 H           4.4878    7.3281    2.7759 H     242  UNL242      0.0521
   1451 H           5.0070    6.8991    4.4268 H     242  UNL242      0.0521
   1452 H           5.8506    5.6500    2.0164 H     242  UNL242      0.2090
   1453 O           6.0290    6.3545    6.8679 O.3   243  UNL243     -0.3982
   1454 C           7.1282    6.4667    5.9827 C.3   243  UNL243      0.0330
   1455 H           7.4004    5.4758    5.6108 H     243  UNL243      0.0521
   1456 H           7.9750    6.9161    6.5071 H     243  UNL243      0.0521
   1457 H           6.8437    7.1036    5.1418 H     243  UNL243      0.0521
   1458 H           6.3114    5.7842    7.6032 H     243  UNL243      0.2090
   1459 O           5.9418    6.7346    9.5219 O.3   244  UNL244     -0.3982
   1460 C           4.6071    6.4174    9.1719 C.3   244  UNL244      0.0330
   1461 H           4.0647    6.0877   10.0614 H     244  UNL244      0.0521
   1462 H           4.6054    5.6272    8.4172 H     244  UNL244      0.0521
   1463 H           4.1254    7.3090    8.7637 H     244  UNL244      0.0521
   1464 H           6.3432    5.9249    9.8807 H     244  UNL244      0.2090
   1465 O           7.9802    6.6240   12.7200 O.3   245  UNL245     -0.3982
   1466 C           6.7149    6.1860   12.2599 C.3   245  UNL245      0.0330
   1467 H           6.1305    5.8082   13.1025 H     245  UNL245      0.0521
   1468 H           6.8500    5.3987   11.5143 H     245  UNL245      0.0521
   1469 H           6.1908    7.0296   11.8049 H     245  UNL245      0.0521
   1470 H           8.4214    5.8544   13.1183 H     245  UNL245      0.2090
   1471 O           7.6764    5.8444   15.2805 O.3   246  UNL246     -0.3982
   1472 C           6.5755    6.6011   15.7496 C.3   246  UNL246      0.0330
   1473 H           5.8094    5.9272   16.1411 H     246  UNL246      0.0521
   1474 H           6.1669    7.1979   14.9305 H     246  UNL246      0.0521
   1475 H           6.9153    7.2656   16.5474 H     246  UNL246      0.0521
   1476 H           7.3443    5.2648   14.5739 H     246  UNL246      0.2090
   1477 O           6.1803    6.0132   18.6198 O.3   247  UNL247     -0.3982
   1478 C           4.8885    6.5906   18.6671 C.3   247  UNL247      0.0330
   1479 H           4.1669    5.8441   19.0083 H     247  UNL247      0.0521
   1480 H           4.6131    6.9513   17.6731 H     247  UNL247      0.0521
   1481 H           4.8997    7.4297   19.3666 H     247  UNL247      0.0521
   1482 H           6.1392    5.2721   17.9915 H     247  UNL247      0.2090
   1483 O           5.6847    5.5106   21.3350 O.3   248  UNL248     -0.3982
   1484 C           5.1549    6.6424   22.0005 C.3   248  UNL248      0.0330
   1485 H           4.3034    6.3394   22.6149 H     248  UNL248      0.0521
   1486 H           4.8402    7.3852   21.2636 H     248  UNL248      0.0521
   1487 H           5.9287    7.0726   22.6407 H     248  UNL248      0.0521
   1488 H           4.9759    5.1507   20.7749 H     248  UNL248      0.2090
   1489 O           5.9431    5.9806   24.7508 O.3   249  UNL249     -0.3982
   1490 C           4.6931    6.6165   24.9446 C.3   249  UNL249      0.0330
   1491 H           4.5544    6.8333   26.0067 H     249  UNL249      0.0521
   1492 H           3.8924    5.9644   24.5873 H     249  UNL249      0.0521
   1493 H           4.6784    7.5511   24.3792 H     249  UNL249      0.0521
   1494 H           5.9264    5.1550   25.2641 H     249  UNL249      0.2090
   1495 O           6.3046    5.7452   28.7414 O.3   250  UNL250     -0.3982
   1496 C           6.9863    6.5435   27.7914 C.3   250  UNL250      0.0330
   1497 H           7.8588    6.0018   27.4178 H     250  UNL250      0.0521
   1498 H           7.2985    7.4807   28.2587 H     250  UNL250      0.0521
   1499 H           6.3115    6.7606   26.9601 H     250  UNL250      0.0521
   1500 H           6.9281    5.5691   29.4665 H     250  UNL250      0.2090
   1501 O           5.1723    7.3438   30.9962 O.3   251  UNL251     -0.3982
   1502 C           4.7983    5.9989   31.2324 C.3   251  UNL251      0.0330
   1503 H           4.5003    5.5318   30.2904 H     251  UNL251      0.0521
   1504 H           3.9695    5.9700   31.9440 H     251  UNL251      0.0521
   1505 H           5.6526    5.4605   31.6494 H     251  UNL251      0.0521
   1506 H           4.3947    7.7959   30.6267 H     251  UNL251      0.2090
   1507 O           7.6291    5.6017   35.4954 O.3   252  UNL252     -0.3982
   1508 C           7.0440    6.7743   34.9594 C.3   252  UNL252      0.0330
   1509 H           6.5985    7.3617   35.7661 H     252  UNL252      0.0521
   1510 H           6.2792    6.4997   34.2289 H     252  UNL252      0.0521
   1511 H           7.8197    7.3652   34.4668 H     252  UNL252      0.0521
   1512 H           6.9172    5.0982   35.9257 H     252  UNL252      0.2090
   1513 O           5.8285    8.9447    0.5840 O.3   253  UNL253     -0.3982
   1514 C           4.8066    9.5259   -0.2049 C.3   253  UNL253      0.0330
   1515 H           4.0681   10.0006    0.4459 H     253  UNL253      0.0521
   1516 H           4.3296    8.7527   -0.8121 H     253  UNL253      0.0521
   1517 H           5.2491   10.2795   -0.8606 H     253  UNL253      0.0521
   1518 H           5.4059    8.2806    1.1549 H     253  UNL253      0.2090
   1519 O           8.0526    9.5366    2.5554 O.3   254  UNL254     -0.3982
   1520 C           6.8173    9.7586    3.2105 C.3   254  UNL254      0.0330
   1521 H           6.4976    8.8398    3.7084 H     254  UNL254      0.0521
   1522 H           6.0670   10.0696    2.4796 H     254  UNL254      0.0521
   1523 H           6.9467   10.5477    3.9549 H     254  UNL254      0.0521
   1524 H           7.9066    8.8319    1.9014 H     254  UNL254      0.2090
   1525 O           7.6905   10.4193    5.9773 O.3   255  UNL255     -0.3982
   1526 C           6.7660    9.4818    6.4977 C.3   255  UNL255      0.0330
   1527 H           7.3070    8.6718    6.9933 H     255  UNL255      0.0521
   1528 H           6.1546    9.0822    5.6850 H     255  UNL255      0.0521
   1529 H           6.1213    9.9836    7.2230 H     255  UNL255      0.0521
   1530 H           8.2484    9.9454    5.3372 H     255  UNL255      0.2090
   1531 O           6.2231    9.4356    9.5421 O.3   256  UNL256     -0.3982
   1532 C           4.8510    9.7696    9.6441 C.3   256  UNL256      0.0330
   1533 H           4.2697    8.8673    9.8497 H     256  UNL256      0.0521
   1534 H           4.5160   10.2269    8.7100 H     256  UNL256      0.0521
   1535 H           4.7183   10.4804   10.4632 H     256  UNL256      0.0521
   1536 H           6.3096    8.8043    8.8076 H     256  UNL256      0.2090
   1537 O           5.1131   10.5353   12.9578 O.3   257  UNL257     -0.3982
   1538 C           5.3687    9.3053   12.3049 C.3   257  UNL257      0.0330
   1539 H           5.5966    8.5375   13.0484 H     257  UNL257      0.0521
   1540 H           6.2105    9.4243   11.6184 H     257  UNL257      0.0521
   1541 H           4.4804    9.0111   11.7410 H     257  UNL257      0.0521
   1542 H           5.9184   10.7705   13.4494 H     257  UNL257      0.2090
   1543 O           6.0345    9.6450   15.5092 O.3   258  UNL258     -0.3982
   1544 C           4.6365    9.4503   15.3986 C.3   258  UNL258      0.0330
   1545 H           4.1549   10.3975   15.1430 H     258  UNL258      0.0521
   1546 H           4.2441    9.0739   16.3463 H     258  UNL258      0.0521
   1547 H           4.4408    8.7201   14.6099 H     258  UNL258      0.0521
   1548 H           6.1770   10.2973   16.2161 H     258  UNL258      0.2090
   1549 O           6.7159   10.6450   18.7924 O.3   259  UNL259     -0.3982
   1550 C           5.7865    9.5769   18.7988 C.3   259  UNL259      0.0330
   1551 H           6.3127    8.6338   18.6320 H     259  UNL259      0.0521
   1552 H           5.0427    9.7353   18.0142 H     259  UNL259      0.0521
   1553 H           5.2873    9.5462   19.7701 H     259  UNL259      0.0521
   1554 H           7.1427   10.6470   17.9187 H     259  UNL259      0.2090
   1555 O           7.5147   10.3919   21.0933 O.3   260  UNL260     -0.3982
   1556 C           6.7992    9.5017   21.9300 C.3   260  UNL260      0.0330
   1557 H           7.4974    8.9767   22.5867 H     260  UNL260      0.0521
   1558 H           6.2507    8.7839   21.3152 H     260  UNL260      0.0521
   1559 H           6.0927   10.0739   22.5359 H     260  UNL260      0.0521
   1560 H           8.1331    9.8558   20.5683 H     260  UNL260      0.2090
   1561 O           7.8084   10.1020   24.8080 O.3   261  UNL261     -0.3982
   1562 C           6.6213    9.3843   25.0915 C.3   261  UNL261      0.0330
   1563 H           6.4771    8.6049   24.3391 H     261  UNL261      0.0521
   1564 H           5.7706   10.0701   25.0889 H     261  UNL261      0.0521
   1565 H           6.7119    8.9233   26.0778 H     261  UNL261      0.0521
   1566 H           7.6985   10.4996   23.9274 H     261  UNL261      0.2090
   1567 O           5.1707    8.8201   27.8556 O.3   262  UNL262     -0.3982
   1568 C           5.3288   10.2032   28.1136 C.3   262  UNL262      0.0330
   1569 H           4.6011   10.5202   28.8648 H     262  UNL262      0.0521
   1570 H           5.1825   10.7663   27.1887 H     262  UNL262      0.0521
   1571 H           6.3388   10.3813   28.4901 H     262  UNL262      0.0521
   1572 H           4.2658    8.6931   27.5231 H     262  UNL262      0.2090
   1573 O           6.4239    9.0825   30.2945 O.3   263  UNL263     -0.3982
   1574 C           6.9285    9.9631   31.2817 C.3   263  UNL263      0.0330
   1575 H           7.6709   10.6278   30.8332 H     263  UNL263      0.0521
   1576 H           7.3828    9.3843   32.0895 H     263  UNL263      0.0521
   1577 H           6.1042   10.5582   31.6818 H     263  UNL263      0.0521
   1578 H           7.1775    8.5683   29.9583 H     263  UNL263      0.2090
   1579 O           6.7102    9.7999   35.2596 O.3   264  UNL264     -0.3982
   1580 C           5.3389    9.6493   34.9414 C.3   264  UNL264      0.0330
   1581 H           4.7289   10.0415   35.7590 H     264  UNL264      0.0521
   1582 H           5.1153    8.5919   34.7806 H     264  UNL264      0.0521
   1583 H           5.1226   10.2081   34.0279 H     264  UNL264      0.0521
   1584 H           6.8719    9.2934   36.0738 H     264  UNL264      0.2090
   1585 O           6.6960   13.9016   -1.1971 O.3   265  UNL265     -0.3982
   1586 C           7.1645   12.5802   -1.3939 C.3   265  UNL265      0.0330
   1587 H           6.3562   11.9614   -1.7914 H     265  UNL265      0.0521
   1588 H           7.5164   12.1721   -0.4432 H     265  UNL265      0.0521
   1589 H           7.9911   12.5989   -2.1080 H     265  UNL265      0.0521
   1590 H           5.9636   13.8531   -0.5593 H     265  UNL265      0.2090
   1591 O           6.1139   12.2474    1.2861 O.3   266  UNL266     -0.3982
   1592 C           4.7272   12.4314    1.0677 C.3   266  UNL266      0.0330
   1593 H           4.1641   11.7145    1.6704 H     266  UNL266      0.0521
   1594 H           4.5023   12.2888    0.0079 H     266  UNL266      0.0521
   1595 H           4.4528   13.4470    1.3626 H     266  UNL266      0.0521
   1596 H           6.3275   11.3382    1.0156 H     266  UNL266      0.2090
   1597 O           5.8568   12.3903    6.6744 O.3   267  UNL267     -0.3982
   1598 C           4.7944   13.0931    6.0565 C.3   267  UNL267      0.0330
   1599 H           4.2151   13.6222    6.8174 H     267  UNL267      0.0521
   1600 H           4.1540   12.3890    5.5199 H     267  UNL267      0.0521
   1601 H           5.2098   13.8157    5.3501 H     267  UNL267      0.0521
   1602 H           5.4576   11.7571    7.2951 H     267  UNL267      0.2090
   1603 O           5.1625   13.7002    8.6311 O.3   268  UNL268     -0.3982
   1604 C           4.9520   12.5688    9.4558 C.3   268  UNL268      0.0330
   1605 H           5.1585   12.8317   10.4962 H     268  UNL268      0.0521
   1606 H           5.6097   11.7567    9.1365 H     268  UNL268      0.0521
   1607 H           3.9113   12.2499    9.3625 H     268  UNL268      0.0521
   1608 H           6.0938   13.9600    8.7347 H     268  UNL268      0.2090
   1609 O           7.2345   13.8597   11.8062 O.3   269  UNL269     -0.3982
   1610 C           6.9616   12.7414   12.6304 C.3   269  UNL269      0.0330
   1611 H           7.3738   11.8396   12.1709 H     269  UNL269      0.0521
   1612 H           5.8814   12.6369   12.7582 H     269  UNL269      0.0521
   1613 H           7.4284   12.8966   13.6059 H     269  UNL269      0.0521
   1614 H           6.8080   13.6932   10.9483 H     269  UNL269      0.2090
   1615 O           6.1166   12.6213   15.9793 O.3   270  UNL270     -0.3982
   1616 C           4.8339   13.0419   15.5525 C.3   270  UNL270      0.0330
   1617 H           4.1508   12.1888   15.5530 H     270  UNL270      0.0521
   1618 H           4.9040   13.4655   14.5477 H     270  UNL270      0.0521
   1619 H           4.4623   13.8039   16.2416 H     270  UNL270      0.0521
   1620 H           6.4202   11.9459   15.3490 H     270  UNL270      0.2090
   1621 O           4.8860   11.8802   18.1775 O.3   271  UNL271     -0.3982
   1622 C           5.2654   13.0566   18.8678 C.3   271  UNL271      0.0330
   1623 H           4.5051   13.3043   19.6127 H     271  UNL271      0.0521
   1624 H           5.3749   13.8785   18.1562 H     271  UNL271      0.0521
   1625 H           6.2203   12.8821   19.3692 H     271  UNL271      0.0521
   1626 H           4.0361   12.0655   17.7429 H     271  UNL271      0.2090
   1627 O           5.7862   11.9884   21.3705 O.3   272  UNL272     -0.3982
   1628 C           5.2539   13.1451   21.9895 C.3   272  UNL272      0.0330
   1629 H           4.3974   12.8667   22.6086 H     272  UNL272      0.0521
   1630 H           4.9459   13.8605   21.2231 H     272  UNL272      0.0521
   1631 H           6.0238   13.5975   22.6188 H     272  UNL272      0.0521
   1632 H           5.0807   11.6091   20.8191 H     272  UNL272      0.2090
   1633 O           5.8303   12.7980   24.7891 O.3   273  UNL273     -0.3982
   1634 C           4.4548   12.9898   25.0643 C.3   273  UNL273      0.0330
   1635 H           4.0065   12.0395   25.3650 H     273  UNL273      0.0521
   1636 H           3.9542   13.3751   24.1727 H     273  UNL273      0.0521
   1637 H           4.3525   13.7120   25.8777 H     273  UNL273      0.0521
   1638 H           5.8894   12.1529   24.0639 H     273  UNL273      0.2090
   1639 O           5.9962   12.6642   27.7772 O.3   274  UNL274     -0.3982
   1640 C           4.5925   12.7834   27.9183 C.3   274  UNL274      0.0330
   1641 H           4.3040   13.8336   27.8278 H     274  UNL274      0.0521
   1642 H           4.2890   12.3938   28.8930 H     274  UNL274      0.0521
   1643 H           4.1057   12.2048   27.1296 H     274  UNL274      0.0521
   1644 H           6.4004   13.1875   28.4901 H     274  UNL274      0.2090
   1645 O           5.4580   13.3455   32.1125 O.3   275  UNL275     -0.3982
   1646 C           5.1321   13.0090   30.7764 C.3   275  UNL275      0.0330
   1647 H           4.3322   12.2645   30.7719 H     275  UNL275      0.0521
   1648 H           6.0172   12.6116   30.2736 H     275  UNL275      0.0521
   1649 H           4.7932   13.9080   30.2562 H     275  UNL275      0.0521
   1650 H           5.7552   12.5287   32.5484 H     275  UNL275      0.2090
   1651 O           4.1623   13.6264   35.4866 O.3   276  UNL276     -0.3982
   1652 C           5.3743   13.0289   35.0641 C.3   276  UNL276      0.0330
   1653 H           5.1550   12.1349   34.4752 H     276  UNL276      0.0521
   1654 H           5.9751   12.7645   35.9377 H     276  UNL276      0.0521
   1655 H           5.9262   13.7424   34.4476 H     276  UNL276      0.0521
   1656 H           3.6949   12.9702   36.0311 H     276  UNL276      0.2090
   1657 O           6.2346   16.1417   -0.0673 O.3   277  UNL277     -0.3982
   1658 C           4.8285   16.1350   -0.2330 C.3   277  UNL277      0.0330
   1659 H           4.3747   16.8391    0.4689 H     277  UNL277      0.0521
   1660 H           4.4446   15.1277   -0.0546 H     277  UNL277      0.0521
   1661 H           4.5897   16.4380   -1.2551 H     277  UNL277      0.0521
   1662 H           6.4157   15.8690    0.8483 H     277  UNL277      0.2090
   1663 O           5.1844   16.6492    3.1659 O.3   278  UNL278     -0.3982
   1664 C           4.7781   15.2937    3.2102 C.3   278  UNL278      0.0330
   1665 H           5.6599   14.6487    3.2367 H     278  UNL278      0.0521
   1666 H           4.1725   15.0649    2.3299 H     278  UNL278      0.0521
   1667 H           4.1828   15.1305    4.1117 H     278  UNL278      0.0521
   1668 H           5.7102   16.7635    2.3559 H     278  UNL278      0.2090
   1669 O           6.4093   15.9562    5.5890 O.3   279  UNL279     -0.3982
   1670 C           5.0836   16.2806    5.9653 C.3   279  UNL279      0.0330
   1671 H           4.6185   15.4164    6.4462 H     279  UNL279      0.0521
   1672 H           4.5127   16.5689    5.0793 H     279  UNL279      0.0521
   1673 H           5.1082   17.1166    6.6682 H     279  UNL279      0.0521
   1674 H           6.3554   15.2118    4.9656 H     279  UNL279      0.2090
   1675 O           5.8920   16.4296    8.3685 O.3   280  UNL280     -0.3982
   1676 C           5.1444   16.0468    9.5083 C.3   280  UNL280      0.0330
   1677 H           5.7808   15.4735   10.1870 H     280  UNL280      0.0521
   1678 H           4.2880   15.4433    9.1976 H     280  UNL280      0.0521
   1679 H           4.7884   16.9453   10.0179 H     280  UNL280      0.0521
   1680 H           6.1942   15.6121    7.9374 H     280  UNL280      0.2090
   1681 O           6.0019   17.0595   12.2682 O.3   281  UNL281     -0.3982
   1682 C           5.2203   15.9102   12.5379 C.3   281  UNL281      0.0330
   1683 H           4.4474   16.1576   13.2698 H     281  UNL281      0.0521
   1684 H           5.8620   15.1147   12.9245 H     281  UNL281      0.0521
   1685 H           4.7480   15.5763   11.6111 H     281  UNL281      0.0521
   1686 H           6.4082   17.3323   13.1085 H     281  UNL281      0.2090
   1687 O           5.9257   15.5351   14.8934 O.3   282  UNL282     -0.3982
   1688 C           4.9787   16.3459   15.5645 C.3   282  UNL282      0.0330
   1689 H           5.4938   16.9967   16.2756 H     282  UNL282      0.0521
   1690 H           4.2609   15.7109   16.0894 H     282  UNL282      0.0521
   1691 H           4.4510   16.9583   14.8296 H     282  UNL282      0.0521
   1692 H           6.3777   15.0036   15.5706 H     282  UNL282      0.2090
   1693 O           5.8212   16.0247   18.4893 O.3   283  UNL283     -0.3982
   1694 C           4.4270   16.2579   18.5693 C.3   283  UNL283      0.0330
   1695 H           4.1632   16.5485   19.5893 H     283  UNL283      0.0521
   1696 H           3.8882   15.3503   18.2867 H     283  UNL283      0.0521
   1697 H           4.1619   17.0652   17.8827 H     283  UNL283      0.0521
   1698 H           6.0263   15.3040   19.1090 H     283  UNL283      0.2090
   1699 O           7.9977   16.2576   22.0043 O.3   284  UNL284     -0.3982
   1700 C           6.6520   16.1892   21.5698 C.3   284  UNL284      0.0330
   1701 H           5.9853   16.3851   22.4133 H     284  UNL284      0.0521
   1702 H           6.4517   15.1979   21.1560 H     284  UNL284      0.0521
   1703 H           6.4894   16.9439   20.7968 H     284  UNL284      0.0521
   1704 H           8.1117   15.5769   22.6893 H     284  UNL284      0.2090
   1705 O           7.8414   16.4747   25.1124 O.3   285  UNL285     -0.3982
   1706 C           6.5563   15.8911   25.0007 C.3   285  UNL285      0.0330
   1707 H           6.5367   15.2119   24.1448 H     285  UNL285      0.0521
   1708 H           5.8081   16.6771   24.8729 H     285  UNL285      0.0521
   1709 H           6.3402   15.3304   25.9131 H     285  UNL285      0.0521
   1710 H           8.0050   16.9653   24.2889 H     285  UNL285      0.2090
   1711 O           6.1072   15.8878   28.4770 O.3   286  UNL286     -0.3982
   1712 C           4.8517   16.3140   27.9805 C.3   286  UNL286      0.0330
   1713 H           4.1013   15.5438   28.1754 H     286  UNL286      0.0521
   1714 H           4.9277   16.5002   26.9065 H     286  UNL286      0.0521
   1715 H           4.5635   17.2372   28.4886 H     286  UNL286      0.0521
   1716 H           6.3364   15.0674   28.0079 H     286  UNL286      0.2090
   1717 O           7.5184   16.6011   30.8152 O.3   287  UNL287     -0.3982
   1718 C           6.5156   15.8172   31.4351 C.3   287  UNL287      0.0330
   1719 H           5.8810   15.3639   30.6695 H     287  UNL287      0.0521
   1720 H           5.9149   16.4478   32.0950 H     287  UNL287      0.0521
   1721 H           6.9930   15.0295   32.0227 H     287  UNL287      0.0521
   1722 H           7.0649   17.2910   30.3015 H     287  UNL287      0.2090
   1723 O           6.3435   15.9304   36.0613 O.3   288  UNL288     -0.3982
   1724 C           5.4666   16.3343   35.0257 C.3   288  UNL288      0.0330
   1725 H           4.4626   15.9526   35.2275 H     288  UNL288      0.0521
   1726 H           5.8289   15.9492   34.0694 H     288  UNL288      0.0521
   1727 H           5.4385   17.4258   34.9893 H     288  UNL288      0.0521
   1728 H           6.3477   14.9581   36.0691 H     288  UNL288      0.2090
   1729 O           6.3146   18.4193   -1.9800 O.3   289  UNL289     -0.3982
   1730 C           5.4928   18.8958   -0.9302 C.3   289  UNL289      0.0330
   1731 H           5.8299   18.4716    0.0189 H     289  UNL289      0.0521
   1732 H           4.4552   18.6111   -1.1208 H     289  UNL289      0.0521
   1733 H           5.5674   19.9849   -0.8870 H     289  UNL289      0.0521
   1734 H           6.2278   17.4509   -1.9938 H     289  UNL289      0.2090
   1735 O           5.9993   19.3526    2.7888 O.3   290  UNL290     -0.3982
   1736 C           4.6747   19.4892    3.2698 C.3   290  UNL290      0.0330
   1737 H           4.3735   18.5692    3.7769 H     290  UNL290      0.0521
   1738 H           4.0018   19.6941    2.4336 H     290  UNL290      0.0521
   1739 H           4.6375   20.3213    3.9768 H     290  UNL290      0.0521
   1740 H           6.0010   18.6073    2.1643 H     290  UNL290      0.2090
   1741 O           6.6634   19.6213    6.8481 O.3   291  UNL291     -0.3982
   1742 C           5.5730   19.4489    5.9616 C.3   291  UNL291      0.0330
   1743 H           4.7739   18.9014    6.4676 H     291  UNL291      0.0521
   1744 H           5.9043   18.8975    5.0782 H     291  UNL291      0.0521
   1745 H           5.2033   20.4310    5.6579 H     291  UNL291      0.0521
   1746 H           6.9699   18.7336    7.1001 H     291  UNL291      0.2090
   1747 O           6.1447   19.5523    9.5831 O.3   292  UNL292     -0.3982
   1748 C           4.9376   19.1509    8.9615 C.3   292  UNL292      0.0330
   1749 H           4.4479   20.0215    8.5182 H     292  UNL292      0.0521
   1750 H           4.2814   18.6884    9.7028 H     292  UNL292      0.0521
   1751 H           5.1660   18.4254    8.1772 H     292  UNL292      0.0521
   1752 H           5.9102   20.1953   10.2738 H     292  UNL292      0.2090
   1753 O           5.0942   20.7195   12.9680 O.3   293  UNL293     -0.3982
   1754 C           4.8032   19.5389   12.2427 C.3   293  UNL293      0.0330
   1755 H           4.2224   18.8584   12.8703 H     293  UNL293      0.0521
   1756 H           5.7360   19.0605   11.9344 H     293  UNL293      0.0521
   1757 H           4.2204   19.8008   11.3566 H     293  UNL293      0.0521
   1758 H           5.6116   20.4555   13.7479 H     293  UNL293      0.2090
   1759 O           5.8486   18.8155   14.8901 O.3   294  UNL294     -0.3982
   1760 C           5.0969   19.5572   15.8332 C.3   294  UNL294      0.0330
   1761 H           4.4159   18.8880   16.3651 H     294  UNL294      0.0521
   1762 H           4.5303   20.3361   15.3172 H     294  UNL294      0.0521
   1763 H           5.7812   20.0203   16.5478 H     294  UNL294      0.0521
   1764 H           5.2149   18.4166   14.2698 H     294  UNL294      0.2090
   1765 O           5.9265   20.2766   18.8347 O.3   295  UNL295     -0.3982
   1766 C           6.4317   18.9897   18.5296 C.3   295  UNL295      0.0330
   1767 H           6.7955   18.5139   19.4437 H     295  UNL295      0.0521
   1768 H           7.2442   19.0788   17.8043 H     295  UNL295      0.0521
   1769 H           5.6288   18.3851   18.1014 H     295  UNL295      0.0521
   1770 H           6.6611   20.7897   19.2125 H     295  UNL295      0.2090
   1771 O           6.1787   19.8775   21.9367 O.3   296  UNL296     -0.3982
   1772 C           5.0587   19.0951   21.5653 C.3   296  UNL296      0.0330
   1773 H           4.2129   19.7504   21.3427 H     296  UNL296      0.0521
   1774 H           4.8016   18.4151   22.3811 H     296  UNL296      0.0521
   1775 H           5.3107   18.5140   20.6752 H     296  UNL296      0.0521
   1776 H           5.9251   20.3816   22.7286 H     296  UNL296      0.2090
   1777 O           5.2960   20.1474   25.5283 O.3   297  UNL297     -0.3982
   1778 C           5.0333   19.0746   24.6424 C.3   297  UNL297      0.0330
   1779 H           4.3455   19.4065   23.8607 H     297  UNL297      0.0521
   1780 H           4.5959   18.2413   25.1976 H     297  UNL297      0.0521
   1781 H           5.9722   18.7526   24.1860 H     297  UNL297      0.0521
   1782 H           4.4450   20.4113   25.9177 H     297  UNL297      0.2090
   1783 O           7.6637   19.7285   28.0051 O.3   298  UNL298     -0.3982
   1784 C           6.4034   19.1003   28.1511 C.3   298  UNL298      0.0330
   1785 H           6.1223   18.6221   27.2095 H     298  UNL298      0.0521
   1786 H           5.6545   19.8449   28.4317 H     298  UNL298      0.0521
   1787 H           6.4726   18.3429   28.9354 H     298  UNL298      0.0521
   1788 H           7.5712   20.3949   27.3031 H     298  UNL298      0.2090
   1789 O           5.6195   20.2000   30.6543 O.3   299  UNL299     -0.3982
   1790 C           4.9165   19.0506   31.0894 C.3   299  UNL299      0.0330
   1791 H           4.2645   19.3159   31.9253 H     299  UNL299      0.0521
   1792 H           5.6290   18.2821   31.3988 H     299  UNL299      0.0521
   1793 H           4.3104   18.6711   30.2635 H     299  UNL299      0.0521
   1794 H           6.1480   20.5139   31.4078 H     299  UNL299      0.2090
   1795 O           7.5832   19.0350   34.3800 O.3   300  UNL300     -0.3982
   1796 C           6.3097   19.5868   34.1001 C.3   300  UNL300      0.0330
   1797 H           5.7930   19.8070   35.0376 H     300  UNL300      0.0521
   1798 H           5.7264   18.8773   33.5081 H     300  UNL300      0.0521
   1799 H           6.4400   20.5111   33.5325 H     300  UNL300      0.0521
   1800 H           7.4355   18.2166   34.8839 H     300  UNL300      0.2090
   1801 O           6.5532   22.7372    0.6460 O.3   301  UNL301     -0.3982
   1802 C           5.5563   22.3318   -0.2740 C.3   301  UNL301      0.0330
   1803 H           4.9235   21.5686    0.1858 H     301  UNL301      0.0521
   1804 H           6.0305   21.9332   -1.1741 H     301  UNL301      0.0521
   1805 H           4.9449   23.1974   -0.5397 H     301  UNL301      0.0521
   1806 H           7.0794   21.9487    0.8630 H     301  UNL301      0.2090
   1807 O           5.5394   23.6339    3.0973 O.3   302  UNL302     -0.3982
   1808 C           5.0806   22.3119    2.8824 C.3   302  UNL302      0.0330
   1809 H           4.3782   22.0359    3.6727 H     302  UNL302      0.0521
   1810 H           5.9312   21.6259    2.8804 H     302  UNL302      0.0521
   1811 H           4.5747   22.2642    1.9152 H     302  UNL302      0.0521
   1812 H           5.9836   23.6451    3.9622 H     302  UNL302      0.2090
   1813 O           6.1293   22.5336    6.1931 O.3   303  UNL303     -0.3982
   1814 C           4.7293   22.7446    6.1913 C.3   303  UNL303      0.0330
   1815 H           4.2203   21.8211    6.4784 H     303  UNL303      0.0521
   1816 H           4.4081   23.0554    5.1942 H     303  UNL303      0.0521
   1817 H           4.4875   23.5303    6.9109 H     303  UNL303      0.0521
   1818 H           6.3133   21.8319    5.5456 H     303  UNL303      0.2090
   1819 O           5.8007   21.8669    8.7195 O.3   304  UNL304     -0.3982
   1820 C           4.9626   22.7171    9.4806 C.3   304  UNL304      0.0330
   1821 H           4.1109   22.1467    9.8595 H     304  UNL304      0.0521
   1822 H           4.6131   23.5414    8.8543 H     304  UNL304      0.0521
   1823 H           5.5330   23.1180   10.3218 H     304  UNL304      0.0521
   1824 H           5.2675   21.5267    7.9810 H     304  UNL304      0.2090
   1825 O           4.2932   23.1850   12.5232 O.3   305  UNL305     -0.3982
   1826 C           3.1723   22.3951   12.1708 C.3   305  UNL305      0.0330
   1827 H           2.5111   22.9699   11.5176 H     305  UNL305      0.0521
   1828 H           2.6378   22.0954   13.0755 H     305  UNL305      0.0521
   1829 H           3.5180   21.5035   11.6423 H     305  UNL305      0.0521
   1830 H           3.9553   23.9681   12.9903 H     305  UNL305      0.2090
   1831 O           6.2612   22.6377   14.9481 O.3   306  UNL306     -0.3982
   1832 C           5.0696   22.7688   15.7014 C.3   306  UNL306      0.0330
   1833 H           5.2223   22.3556   16.7015 H     306  UNL306      0.0521
   1834 H           4.2582   22.2389   15.1965 H     306  UNL306      0.0521
   1835 H           4.8151   23.8282   15.7822 H     306  UNL306      0.0521
   1836 H           6.4615   21.6877   14.8934 H     306  UNL306      0.2090
   1837 O           5.1311   24.1130   19.0541 O.3   307  UNL307     -0.3982
   1838 C           4.2544   23.0620   18.6919 C.3   307  UNL307      0.0330
   1839 H           4.8096   22.1216   18.6490 H     307  UNL307      0.0521
   1840 H           3.8074   23.2783   17.7186 H     307  UNL307      0.0521
   1841 H           3.4653   22.9827   19.4433 H     307  UNL307      0.0521
   1842 H           5.8200   24.1592   18.3694 H     307  UNL307      0.2090
   1843 O           5.9119   22.1133   21.1580 O.3   308  UNL308     -0.3982
   1844 C           5.0669   22.8308   22.0388 C.3   308  UNL308      0.0330
   1845 H           4.5434   22.1305   22.6943 H     308  UNL308      0.0521
   1846 H           4.3459   23.4131   21.4598 H     308  UNL308      0.0521
   1847 H           5.6760   23.5067   22.6436 H     308  UNL308      0.0521
   1848 H           5.3437   21.5225   20.6350 H     308  UNL308      0.2090
   1849 O           5.9610   22.2973   24.3726 O.3   309  UNL309     -0.3982
   1850 C           4.7307   22.7788   24.8814 C.3   309  UNL309      0.0330
   1851 H           4.9121   23.3523   25.7939 H     309  UNL309      0.0521
   1852 H           4.0684   21.9360   25.0937 H     309  UNL309      0.0521
   1853 H           4.2656   23.4255   24.1337 H     309  UNL309      0.0521
   1854 H           6.3499   21.7271   25.0575 H     309  UNL309      0.2090
   1855 O           6.2830   22.2823   27.2945 O.3   310  UNL310     -0.3982
   1856 C           7.3563   22.7826   28.0706 C.3   310  UNL310      0.0330
   1857 H           7.9596   21.9495   28.4399 H     310  UNL310      0.0521
   1858 H           6.9617   23.3607   28.9098 H     310  UNL310      0.0521
   1859 H           7.9760   23.4292   27.4450 H     310  UNL310      0.0521
   1860 H           5.7512   21.7126   27.8760 H     310  UNL310      0.2090
   1861 O           4.3873   21.9455   31.8034 O.3   311  UNL311     -0.3982
   1862 C           5.0927   22.8038   30.9257 C.3   311  UNL311      0.0330
   1863 H           5.9559   22.2753   30.5136 H     311  UNL311      0.0521
   1864 H           5.4217   23.6923   31.4699 H     311  UNL311      0.0521
   1865 H           4.4286   23.1030   30.1115 H     311  UNL311      0.0521
   1866 H           5.0016   21.6969   32.5150 H     311  UNL311      0.2090
   1867 O           4.9335   23.6739   35.1243 O.3   312  UNL312     -0.3982
   1868 C           4.8150   22.2726   35.2881 C.3   312  UNL312      0.0330
   1869 H           5.7805   21.8569   35.5871 H     312  UNL312      0.0521
   1870 H           4.4873   21.8214   34.3484 H     312  UNL312      0.0521
   1871 H           4.0757   22.0670   36.0658 H     312  UNL312      0.0521
   1872 H           5.5957   23.8252   34.4285 H     312  UNL312      0.2090
   1873 O           7.1503   26.4444   -1.9259 O.3   313  UNL313     -0.3982
   1874 C           7.0820   25.6113   -0.7832 C.3   313  UNL313      0.0330
   1875 H           6.4272   24.7610   -0.9896 H     313  UNL313      0.0521
   1876 H           6.6970   26.1842    0.0639 H     313  UNL313      0.0521
   1877 H           8.0850   25.2474   -0.5484 H     313  UNL313      0.0521
   1878 H           6.2463   26.7519   -2.1097 H     313  UNL313      0.2090
   1879 O           6.7466   28.0500    2.1596 O.3   314  UNL314     -0.3982
   1880 C           6.9572   27.4208    3.4103 C.3   314  UNL314      0.0330
   1881 H           7.7920   27.9024    3.9256 H     314  UNL314      0.0521
   1882 H           7.1739   26.3612    3.2542 H     314  UNL314      0.0521
   1883 H           6.0526   27.5202    4.0149 H     314  UNL314      0.0521
   1884 H           7.5654   27.9455    1.6457 H     314  UNL314      0.2090
   1885 O           6.5386   25.6917    7.1364 O.3   315  UNL315     -0.3982
   1886 C           7.1833   26.0707    5.9342 C.3   315  UNL315      0.0330
   1887 H           6.6231   25.6809    5.0807 H     315  UNL315      0.0521
   1888 H           8.2021   25.6758    5.9260 H     315  UNL315      0.0521
   1889 H           7.2171   27.1612    5.8778 H     315  UNL315      0.0521
   1890 H           6.5236   24.7197    7.1584 H     315  UNL315      0.2090
   1891 O           6.6479   28.0339    8.4467 O.3   316  UNL316     -0.3982
   1892 C           6.8547   27.2838    9.6295 C.3   316  UNL316      0.0330
   1893 H           7.6680   27.7297   10.2074 H     316  UNL316      0.0521
   1894 H           7.1018   26.2517    9.3690 H     316  UNL316      0.0521
   1895 H           5.9381   27.2977   10.2239 H     316  UNL316      0.0521
   1896 H           7.4774   28.0033    7.9403 H     316  UNL316      0.2090
   1897 O           7.9997   25.7860   11.8951 O.3   317  UNL317     -0.3982
   1898 C           6.8516   25.9740   12.7019 C.3   317  UNL317      0.0330
   1899 H           6.5452   25.0164   13.1302 H     317  UNL317      0.0521
   1900 H           6.0431   26.3894   12.0954 H     317  UNL317      0.0521
   1901 H           7.0940   26.6703   13.5081 H     317  UNL317      0.0521
   1902 H           7.7541   25.1640   11.1892 H     317  UNL317      0.2090
   1903 O           7.3230   24.8965   15.2541 O.3   318  UNL318     -0.3982
   1904 C           6.6126   26.0102   15.7634 C.3   318  UNL318      0.0330
   1905 H           5.9759   26.4271   14.9791 H     318  UNL318      0.0521
   1906 H           7.3202   26.7658   16.1131 H     318  UNL318      0.0521
   1907 H           5.9901   25.6826   16.5992 H     318  UNL318      0.0521
   1908 H           7.8660   25.2179   14.5143 H     318  UNL318      0.2090
   1909 O           6.1291   27.1327   18.2863 O.3   319  UNL319     -0.3982
   1910 C           4.7156   27.0690   18.3359 C.3   319  UNL319      0.0330
   1911 H           4.2933   27.7279   17.5731 H     319  UNL319      0.0521
   1912 H           4.3708   27.3734   19.3270 H     319  UNL319      0.0521
   1913 H           4.3992   26.0414   18.1422 H     319  UNL319      0.0521
   1914 H           6.3798   28.0557   18.4618 H     319  UNL319      0.2090
   1915 O           7.2971   26.8880   21.6676 O.3   320  UNL320     -0.3982
   1916 C           7.1482   25.4968   21.4510 C.3   320  UNL320      0.0330
   1917 H           6.2620   25.3155   20.8376 H     320  UNL320      0.0521
   1918 H           7.0500   24.9860   22.4120 H     320  UNL320      0.0521
   1919 H           8.0322   25.1217   20.9301 H     320  UNL320      0.0521
   1920 H           6.4982   27.1921   22.1311 H     320  UNL320      0.2090
   1921 O           7.9156   25.9475   25.0641 O.3   321  UNL321     -0.3982
   1922 C           6.5037   25.9533   24.9590 C.3   321  UNL321      0.0330
   1923 H           6.1074   24.9968   25.3087 H     321  UNL321      0.0521
   1924 H           6.2157   26.1206   23.9183 H     321  UNL321      0.0521
   1925 H           6.1046   26.7593   25.5792 H     321  UNL321      0.0521
   1926 H           8.2408   25.2225   24.5035 H     321  UNL321      0.2090
   1927 O           8.0102   26.0484   27.9116 O.3   322  UNL322     -0.3982
   1928 C           6.5986   25.9482   27.9548 C.3   322  UNL322      0.0330
   1929 H           6.2730   25.8213   28.9902 H     322  UNL322      0.0521
   1930 H           6.2744   25.0960   27.3526 H     322  UNL322      0.0521
   1931 H           6.1648   26.8648   27.5485 H     322  UNL322      0.0521
   1932 H           8.3667   25.2213   28.2782 H     322  UNL322      0.2090
   1933 O           7.2082   26.0784   31.3351 O.3   323  UNL323     -0.3982
   1934 C           7.1955   27.4719   31.0854 C.3   323  UNL323      0.0330
   1935 H           6.5567   27.9689   31.8197 H     323  UNL323      0.0521
   1936 H           6.8217   27.6586   30.0757 H     323  UNL323      0.0521
   1937 H           8.2141   27.8576   31.1715 H     323  UNL323      0.0521
   1938 H           6.2915   25.7648   31.2516 H     323  UNL323      0.2090
   1939 O           5.7157   27.0994   34.2842 O.3   324  UNL324     -0.3982
   1940 C           5.1019   26.5233   35.4225 C.3   324  UNL324      0.0330
   1941 H           4.7180   27.3152   36.0706 H     324  UNL324      0.0521
   1942 H           5.8323   25.9170   35.9637 H     324  UNL324      0.0521
   1943 H           4.2743   25.8887   35.0970 H     324  UNL324      0.0521
   1944 H           6.4455   27.6565   34.6043 H     324  UNL324      0.2090
   1945 O           7.9372   -1.0567    0.9455 O.3   325  UNL325     -0.3982
   1946 C           8.8255   -1.1200   -0.1552 C.3   325  UNL325      0.0330
   1947 H           8.5515   -1.9604   -0.7978 H     325  UNL325      0.0521
   1948 H           9.8487   -1.2435    0.2079 H     325  UNL325      0.0521
   1949 H           8.7529   -0.1902   -0.7243 H     325  UNL325      0.0521
   1950 H           8.0239   -1.8947    1.4311 H     325  UNL325      0.2090
   1951 O          10.2216   -0.5959    2.4403 O.3   326  UNL326     -0.3982
   1952 C           9.1601   -0.1933    3.2863 C.3   326  UNL326      0.0330
   1953 H           8.4920    0.4773    2.7402 H     326  UNL326      0.0521
   1954 H           9.5656    0.3148    4.1646 H     326  UNL326      0.0521
   1955 H           8.6041   -1.0783    3.6045 H     326  UNL326      0.0521
   1956 H          10.6963    0.2100    2.1744 H     326  UNL326      0.2090
   1957 O           9.6905   -0.9854    6.4040 O.3   327  UNL327     -0.3982
   1958 C           8.3308   -1.1405    6.0408 C.3   327  UNL327      0.0330
   1959 H           7.7323   -1.3250    6.9364 H     327  UNL327      0.0521
   1960 H           8.2319   -1.9770    5.3448 H     327  UNL327      0.0521
   1961 H           7.9855   -0.2239    5.5569 H     327  UNL327      0.0521
   1962 H           9.9686   -1.8138    6.8306 H     327  UNL327      0.2090
   1963 O           8.9380   -1.2158    9.2522 O.3   328  UNL328     -0.3982
   1964 C           8.7520    0.1821    9.1258 C.3   328  UNL328      0.0330
   1965 H           9.4272    0.7036    9.8087 H     328  UNL328      0.0521
   1966 H           7.7146    0.4350    9.3582 H     328  UNL328      0.0521
   1967 H           8.9756    0.4788    8.0984 H     328  UNL328      0.0521
   1968 H           8.7323   -1.4492   10.1734 H     328  UNL328      0.2090
   1969 O          10.0619    0.1870   12.1686 O.3   329  UNL329     -0.3982
   1970 C           8.7533   -0.0964   12.6286 C.3   329  UNL329      0.0330
   1971 H           8.7205   -1.1103   13.0351 H     329  UNL329      0.0521
   1972 H           8.0466   -0.0013   11.8006 H     329  UNL329      0.0521
   1973 H           8.4901    0.6170   13.4131 H     329  UNL329      0.0521
   1974 H          10.2673   -0.4616   11.4739 H     329  UNL329      0.2090
   1975 O           9.6625   -1.1000   15.0485 O.3   330  UNL330     -0.3982
   1976 C           8.3663   -1.1000   15.6181 C.3   330  UNL330      0.0330
   1977 H           8.3075   -1.8690   16.3923 H     330  UNL330      0.0521
   1978 H           7.6251   -1.2947   14.8391 H     330  UNL330      0.0521
   1979 H           8.1742   -0.1214   16.0642 H     330  UNL330      0.0521
   1980 H           9.8041   -1.9804   14.6608 H     330  UNL330      0.2090
   1981 O           9.4960   -0.2662   18.3573 O.3   331  UNL331     -0.3982
   1982 C           8.1184   -0.2947   18.6824 C.3   331  UNL331      0.0330
   1983 H           7.5923    0.4743   18.1113 H     331  UNL331      0.0521
   1984 H           7.9922   -0.1186   19.7534 H     331  UNL331      0.0521
   1985 H           7.7132   -1.2766   18.4267 H     331  UNL331      0.0521
   1986 H           9.8275    0.6164   18.5952 H     331  UNL331      0.2090
   1987 O           9.9778   -1.0643   21.2215 O.3   332  UNL332     -0.3982
   1988 C           8.7501   -1.1023   21.9257 C.3   332  UNL332      0.0330
   1989 H           8.9160   -1.5060   22.9276 H     332  UNL332      0.0521
   1990 H           8.0369   -1.7274   21.3828 H     332  UNL332      0.0521
   1991 H           8.3546   -0.0870   22.0052 H     332  UNL332      0.0521
   1992 H          10.3042   -1.9786   21.1668 H     332  UNL332      0.2090
   1993 O          11.0917   -0.6353   24.0992 O.3   333  UNL333     -0.3982
   1994 C          10.4525   -1.2575   25.1986 C.3   333  UNL333      0.0330
   1995 H          11.1989   -1.7615   25.8177 H     333  UNL333      0.0521
   1996 H           9.7186   -1.9800   24.8333 H     333  UNL333      0.0521
   1997 H           9.9446   -0.4943   25.7929 H     333  UNL333      0.0521
   1998 H          11.5333   -1.3369   23.5909 H     333  UNL333      0.2090
   1999 O           9.5740   -1.0842   28.3565 O.3   334  UNL334     -0.3982
   2000 C           8.2199   -1.1009   27.9436 C.3   334  UNL334      0.0330
   2001 H           7.6634   -1.8239   28.5451 H     334  UNL334      0.0521
   2002 H           8.1638   -1.3707   26.8862 H     334  UNL334      0.0521
   2003 H           7.7926   -0.1056   28.0865 H     334  UNL334      0.0521
   2004 H           9.9260   -1.9800   28.2180 H     334  UNL334      0.2090
   2005 O           8.3773    0.3532   32.0496 O.3   335  UNL335     -0.3982
   2006 C           8.8228   -0.1208   30.7920 C.3   335  UNL335      0.0330
   2007 H           7.9641   -0.4446   30.1986 H     335  UNL335      0.0521
   2008 H           9.5126   -0.9553   30.9398 H     335  UNL335      0.0521
   2009 H           9.3395    0.6880   30.2701 H     335  UNL335      0.0521
   2010 H           7.9233   -0.3859   32.4890 H     335  UNL335      0.2090
   2011 O           9.5541   -1.0321   36.0245 O.3   336  UNL336     -0.3982
   2012 C           8.6975   -1.1280   34.9013 C.3   336  UNL336      0.0330
   2013 H           8.0201   -1.9759   35.0298 H     336  UNL336      0.0521
   2014 H           9.2954   -1.2595   33.9962 H     336  UNL336      0.0521
   2015 H           8.1143   -0.2078   34.8195 H     336  UNL336      0.0521
   2016 H          10.0582   -1.8622   36.0710 H     336  UNL336      0.2090
   2017 O           9.9026    2.1613   -1.0806 O.3   337  UNL337     -0.3982
   2018 C           9.7618    2.5610    0.2702 C.3   337  UNL337      0.0330
   2019 H           9.6186    1.6788    0.8992 H     337  UNL337      0.0521
   2020 H           8.9048    3.2322    0.3651 H     337  UNL337      0.0521
   2021 H          10.6684    3.0848    0.5821 H     337  UNL337      0.0521
   2022 H           9.0836    1.6996   -1.3288 H     337  UNL337      0.2090
   2023 O           9.6898    2.8634    3.5105 O.3   338  UNL338     -0.3982
   2024 C           8.4204    3.2947    3.0557 C.3   338  UNL338      0.0330
   2025 H           7.8865    3.7851    3.8736 H     338  UNL338      0.0521
   2026 H           7.8492    2.4348    2.6974 H     338  UNL338      0.0521
   2027 H           8.5586    4.0044    2.2366 H     338  UNL338      0.0521
   2028 H           9.5350    2.2353    4.2365 H     338  UNL338      0.2090
   2029 O          11.6254    2.7257    5.8651 O.3   339  UNL339     -0.3982
   2030 C          10.4665    3.3289    6.4106 C.3   339  UNL339      0.0330
   2031 H           9.8249    2.5592    6.8467 H     339  UNL339      0.0521
   2032 H           9.9287    3.8640    5.6242 H     339  UNL339      0.0521
   2033 H          10.7661    4.0345    7.1891 H     339  UNL339      0.0521
   2034 H          11.3281    2.1054    5.1778 H     339  UNL339      0.2090
   2035 O           9.4767    3.4501    9.1531 O.3   340  UNL340     -0.3982
   2036 C           8.1125    3.1803    9.4186 C.3   340  UNL340      0.0330
   2037 H           8.0353    2.3600   10.1364 H     340  UNL340      0.0521
   2038 H           7.6052    2.9135    8.4882 H     340  UNL340      0.0521
   2039 H           7.6488    4.0753    9.8401 H     340  UNL340      0.0521
   2040 H           9.8612    2.6385    8.7802 H     340  UNL340      0.2090
   2041 O           9.9944    2.8609   11.9245 O.3   341  UNL341     -0.3982
   2042 C           8.7370    3.2917   12.4121 C.3   341  UNL341      0.0330
   2043 H           8.8719    3.8048   13.3676 H     341  UNL341      0.0521
   2044 H           8.0795    2.4283   12.5398 H     341  UNL341      0.0521
   2045 H           8.2932    3.9812   11.6902 H     341  UNL341      0.0521
   2046 H          10.3635    2.2508   12.5857 H     341  UNL341      0.2090
   2047 O          11.0228    1.3421   14.8383 O.3   342  UNL342     -0.3982
   2048 C          10.7928    1.0477   16.2040 C.3   342  UNL342      0.0330
   2049 H          11.1311    0.0314   16.4205 H     342  UNL342      0.0521
   2050 H           9.7266    1.1428   16.4235 H     342  UNL342      0.0521
   2051 H          11.3537    1.7550   16.8193 H     342  UNL342      0.0521
   2052 H          10.5126    0.6987   14.3175 H     342  UNL342      0.2090
   2053 O          10.1696    3.4591   18.4792 O.3   343  UNL343     -0.3982
   2054 C           8.8047    3.1862   18.7386 C.3   343  UNL343      0.0330
   2055 H           8.7229    2.5213   19.6021 H     343  UNL343      0.0521
   2056 H           8.3526    2.7182   17.8608 H     343  UNL343      0.0521
   2057 H           8.2895    4.1251   18.9544 H     343  UNL343      0.0521
   2058 H          10.6004    2.6078   18.2912 H     343  UNL343      0.2090
   2059 O          10.5288    2.9656   21.3188 O.3   344  UNL344     -0.3982
   2060 C          10.9273    1.6746   21.7419 C.3   344  UNL344      0.0330
   2061 H          10.0421    1.0579   21.9163 H     344  UNL344      0.0521
   2062 H          11.5143    1.7561   22.6600 H     344  UNL344      0.0521
   2063 H          11.5389    1.2176   20.9604 H     344  UNL344      0.0521
   2064 H           9.9882    3.3458   22.0321 H     344  UNL344      0.2090
   2065 O          10.9438    3.5467   25.7802 O.3   345  UNL345     -0.3982
   2066 C          10.4006    3.1986   24.5199 C.3   345  UNL345      0.0330
   2067 H          10.3156    2.1116   24.4464 H     345  UNL345      0.0521
   2068 H          11.0477    3.5788   23.7258 H     345  UNL345      0.0521
   2069 H           9.4088    3.6468   24.4245 H     345  UNL345      0.0521
   2070 H          11.8231    3.1352   25.8358 H     345  UNL345      0.2090
   2071 O           9.4244    2.0522   28.0948 O.3   346  UNL346     -0.3982
   2072 C           9.2680    3.4570   28.0136 C.3   346  UNL346      0.0330
   2073 H           8.5667    3.7915   28.7821 H     346  UNL346      0.0521
   2074 H           8.8947    3.7263   27.0226 H     346  UNL346      0.0521
   2075 H          10.2379    3.9325   28.1768 H     346  UNL346      0.0521
   2076 H           8.5480    1.6581   27.9460 H     346  UNL346      0.2090
   2077 O           9.6846    2.7162   31.5220 O.3   347  UNL347     -0.3982
   2078 C          10.8565    3.2897   30.9722 C.3   347  UNL347      0.0330
   2079 H          11.5987    2.5068   30.7969 H     347  UNL347      0.0521
   2080 H          11.2557    4.0371   31.6622 H     347  UNL347      0.0521
   2081 H          10.6057    3.7700   30.0235 H     347  UNL347      0.0521
   2082 H           9.9384    2.2979   32.3623 H     347  UNL347      0.2090
   2083 O           8.8603    3.2772   35.1980 O.3   348  UNL348     -0.3982
   2084 C           8.9186    1.8626   35.1970 C.3   348  UNL348      0.0330
   2085 H           8.2660    1.4696   35.9805 H     348  UNL348      0.0521
   2086 H           9.9481    1.5394   35.3693 H     348  UNL348      0.0521
   2087 H           8.5810    1.4938   34.2256 H     348  UNL348      0.0521
   2088 H           9.1655    3.5751   36.0719 H     348  UNL348      0.2090
   2089 O           9.4898    7.1359   -1.2178 O.3   349  UNL349     -0.3982
   2090 C           8.4700    6.2261   -0.8480 C.3   349  UNL349      0.0330
   2091 H           8.9178    5.2686   -0.5705 H     349  UNL349      0.0521
   2092 H           7.7814    6.0893   -1.6854 H     349  UNL349      0.0521
   2093 H           7.9244    6.6322    0.0069 H     349  UNL349      0.0521
   2094 H           9.9562    6.7488   -1.9781 H     349  UNL349      0.2090
   2095 O          10.4313    6.2565    3.2093 O.3   350  UNL350     -0.3982
   2096 C           9.0496    6.5525    3.1201 C.3   350  UNL350      0.0330
   2097 H           8.4762    5.7788    3.6367 H     350  UNL350      0.0521
   2098 H           8.7535    6.6000    2.0694 H     350  UNL350      0.0521
   2099 H           8.8620    7.5191    3.5934 H     350  UNL350      0.0521
   2100 H          10.5670    5.3940    2.7814 H     350  UNL350      0.2090
   2101 O          11.7533    6.0920    5.8342 O.3   351  UNL351     -0.3982
   2102 C          10.5448    6.5750    6.3915 C.3   351  UNL351      0.0330
   2103 H          10.0825    5.7910    6.9964 H     351  UNL351      0.0521
   2104 H           9.8678    6.8776    5.5889 H     351  UNL351      0.0521
   2105 H          10.7651    7.4380    7.0241 H     351  UNL351      0.0521
   2106 H          11.5261    5.3272    5.2784 H     351  UNL351      0.2090
   2107 O           9.9414    6.3910    9.2303 O.3   352  UNL352     -0.3982
   2108 C           8.5294    6.4908    9.1979 C.3   352  UNL352      0.0330
   2109 H           8.1547    6.6976   10.2034 H     352  UNL352      0.0521
   2110 H           8.1057    5.5553    8.8247 H     352  UNL352      0.0521
   2111 H           8.2463    7.3082    8.5306 H     352  UNL352      0.0521
   2112 H          10.1622    5.6579    9.8298 H     352  UNL352      0.2090
   2113 O          10.9635    6.6181   13.5287 O.3   353  UNL353     -0.3982
   2114 C          10.7581    6.2531   12.1763 C.3   353  UNL353      0.0330
   2115 H          10.2260    7.0549   11.6583 H     353  UNL353      0.0521
   2116 H          10.1780    5.3282   12.1318 H     353  UNL353      0.0521
   2117 H          11.7284    6.0953   11.6996 H     353  UNL353      0.0521
   2118 H          10.0856    6.7513   13.9252 H     353  UNL353      0.2090
   2119 O          11.7231    4.7858   15.9070 O.3   354  UNL354     -0.3982
   2120 C          10.4147    4.5411   15.4246 C.3   354  UNL354      0.0330
   2121 H           9.8773    3.9053   16.1326 H     354  UNL354      0.0521
   2122 H          10.4707    4.0521   14.4491 H     354  UNL354      0.0521
   2123 H           9.8897    5.4938   15.3226 H     354  UNL354      0.0521
   2124 H          12.1641    3.9229   15.9872 H     354  UNL354      0.2090
   2125 O           9.2631    5.8060   17.6601 O.3   355  UNL355     -0.3982
   2126 C           8.7845    6.5794   18.7451 C.3   355  UNL355      0.0330
   2127 H           8.2849    5.9276   19.4660 H     355  UNL355      0.0521
   2128 H           8.0863    7.3344   18.3755 H     355  UNL355      0.0521
   2129 H           9.6299    7.0740   19.2290 H     355  UNL355      0.0521
   2130 H           8.4910    5.3796   17.2506 H     355  UNL355      0.2090
   2131 O           9.3028    5.8748   21.5218 O.3   356  UNL356     -0.3982
   2132 C           8.1814    6.6408   21.9221 C.3   356  UNL356      0.0330
   2133 H           7.5858    6.0696   22.6386 H     356  UNL356      0.0521
   2134 H           7.5773    6.8893   21.0461 H     356  UNL356      0.0521
   2135 H           8.5306    7.5620   22.3944 H     356  UNL356      0.0521
   2136 H           8.9617    5.0644   21.1065 H     356  UNL356      0.2090
   2137 O           8.5057    7.3858   24.8697 O.3   357  UNL357     -0.3982
   2138 C           8.9468    6.0461   24.9927 C.3   357  UNL357      0.0330
   2139 H           8.0877    5.3726   24.9422 H     357  UNL357      0.0521
   2140 H           9.4675    5.9190   25.9450 H     357  UNL357      0.0521
   2141 H           9.6322    5.8210   24.1723 H     357  UNL357      0.0521
   2142 H           7.8997    7.5563   25.6108 H     357  UNL357      0.2090
   2143 O           9.6916    6.2419   28.5966 O.3   358  UNL358     -0.3982
   2144 C          10.8865    6.2375   27.8371 C.3   358  UNL358      0.0330
   2145 H          11.7319    6.0001   28.4877 H     358  UNL358      0.0521
   2146 H          11.0307    7.2183   27.3775 H     358  UNL358      0.0521
   2147 H          10.8074    5.4790   27.0548 H     358  UNL358      0.0521
   2148 H           9.7914    6.9241   29.2822 H     358  UNL358      0.2090
   2149 O           9.4470    5.7268   31.1698 O.3   359  UNL359     -0.3982
   2150 C           8.3744    6.6473   31.2510 C.3   359  UNL359      0.0330
   2151 H           7.4611    6.1197   31.5371 H     359  UNL359      0.0521
   2152 H           8.2379    7.1353   30.2829 H     359  UNL359      0.0521
   2153 H           8.6092    7.4008   32.0064 H     359  UNL359      0.0521
   2154 H           9.2101    5.0710   30.4920 H     359  UNL359      0.2090
   2155 O          10.9736    5.3303   35.5509 O.3   360  UNL360     -0.3982
   2156 C          10.7992    6.7134   35.3039 C.3   360  UNL360      0.0330
   2157 H           9.7349    6.9593   35.3385 H     360  UNL360      0.0521
   2158 H          11.2102    6.9640   34.3230 H     360  UNL360      0.0521
   2159 H          11.3273    7.2812   36.0736 H     360  UNL360      0.0521
   2160 H          10.4944    4.8527   34.8525 H     360  UNL360      0.2090
   2161 O           9.0212    9.5913   -2.1101 O.3   361  UNL361     -0.3982
   2162 C           8.0987    9.4190   -1.0501 C.3   361  UNL361      0.0330
   2163 H           7.3424   10.2068   -1.0923 H     361  UNL361      0.0521
   2164 H           8.6282    9.4584   -0.0951 H     361  UNL361      0.0521
   2165 H           7.6140    8.4456   -1.1555 H     361  UNL361      0.0521
   2166 H           9.4351   10.4630   -1.9898 H     361  UNL361      0.2090
   2167 O          10.6274    8.8372    1.3430 O.3   362  UNL362     -0.3982
   2168 C          11.0247   10.0269    1.9996 C.3   362  UNL362      0.0330
   2169 H          11.6276    9.7766    2.8760 H     362  UNL362      0.0521
   2170 H          10.1387   10.5902    2.3025 H     362  UNL362      0.0521
   2171 H          11.6200   10.6310    1.3110 H     362  UNL362      0.0521
   2172 H          10.1013    8.3222    1.9783 H     362  UNL362      0.2090
   2173 O          10.8623   10.5636    5.1511 O.3   363  UNL363     -0.3982
   2174 C          10.4904    9.2204    4.9026 C.3   363  UNL363      0.0330
   2175 H           9.9175    8.8370    5.7506 H     363  UNL363      0.0521
   2176 H          11.3875    8.6150    4.7518 H     363  UNL363      0.0521
   2177 H           9.8730    9.1835    4.0020 H     363  UNL363      0.0521
   2178 H          11.4089   10.5646    5.9554 H     363  UNL363      0.2090
   2179 O           9.6777    9.1834    8.3618 O.3   364  UNL364     -0.3982
   2180 C           8.7464    9.6920    9.2991 C.3   364  UNL364      0.0330
   2181 H           8.2621    8.8622    9.8199 H     364  UNL364      0.0521
   2182 H           7.9986   10.2963    8.7798 H     364  UNL364      0.0521
   2183 H           9.2757   10.3150   10.0238 H     364  UNL364      0.0521
   2184 H           9.1791    8.6352    7.7323 H     364  UNL364      0.2090
   2185 O           9.7990    8.7416   13.0888 O.3   365  UNL365     -0.3982
   2186 C           8.8145    9.3005   12.2385 C.3   365  UNL365      0.0330
   2187 H           9.2251   10.1769   11.7310 H     365  UNL365      0.0521
   2188 H           7.9403    9.5845   12.8293 H     365  UNL365      0.0521
   2189 H           8.5226    8.5551   11.4950 H     365  UNL365      0.0521
   2190 H          10.0381    9.4255   13.7373 H     365  UNL365      0.2090
   2191 O           8.9562    8.5663   15.3616 O.3   366  UNL366     -0.3982
   2192 C           8.7571    9.9412   15.6346 C.3   366  UNL366      0.0330
   2193 H           8.0445   10.0511   16.4558 H     366  UNL366      0.0521
   2194 H           8.3776   10.4401   14.7396 H     366  UNL366      0.0521
   2195 H           9.7118   10.3884   15.9213 H     366  UNL366      0.0521
   2196 H           8.0925    8.1970   15.1102 H     366  UNL366      0.2090
   2197 O          11.6949    9.6807   19.2048 O.3   367  UNL367     -0.3982
   2198 C          10.5361    9.8761   18.4151 C.3   367  UNL367      0.0330
   2199 H           9.6557    9.9139   19.0614 H     367  UNL367      0.0521
   2200 H          10.4403    9.0570   17.6983 H     367  UNL367      0.0521
   2201 H          10.6296   10.8211   17.8748 H     367  UNL367      0.0521
   2202 H          11.5830    8.8353   19.6719 H     367  UNL367      0.2090
   2203 O          11.1976   10.2381   21.5957 O.3   368  UNL368     -0.3982
   2204 C          10.0690    9.4128   21.8188 C.3   368  UNL368      0.0330
   2205 H           9.7438    8.9749   20.8718 H     368  UNL368      0.0521
   2206 H           9.2620   10.0073   22.2538 H     368  UNL368      0.0521
   2207 H          10.3443    8.6141   22.5115 H     368  UNL368      0.0521
   2208 H          10.9228   10.9369   20.9779 H     368  UNL368      0.2090
   2209 O          11.5451   10.1582   24.4837 O.3   369  UNL369     -0.3982
   2210 C          10.6313    9.7396   25.4808 C.3   369  UNL369      0.0330
   2211 H          11.1010    8.9806   26.1113 H     369  UNL369      0.0521
   2212 H           9.7353    9.3314   25.0069 H     369  UNL369      0.0521
   2213 H          10.3561   10.6006   26.0945 H     369  UNL369      0.0521
   2214 H          11.7707    9.3736   23.9555 H     369  UNL369      0.2090
   2215 O           8.7517    8.6365   27.4047 O.3   370  UNL370     -0.3982
   2216 C           8.4896    9.9286   27.9207 C.3   370  UNL370      0.0330
   2217 H           9.4016   10.5295   27.8815 H     370  UNL370      0.0521
   2218 H           8.1393    9.8457   28.9524 H     370  UNL370      0.0521
   2219 H           7.7163   10.4039   27.3127 H     370  UNL370      0.0521
   2220 H           9.4411    8.2399   27.9641 H     370  UNL370      0.2090
   2221 O          11.2458   10.2622   31.5662 O.3   371  UNL371     -0.3982
   2222 C          10.4487    9.2528   30.9745 C.3   371  UNL371      0.0330
   2223 H          10.3667    8.4043   31.6583 H     371  UNL371      0.0521
   2224 H          10.9029    8.9335   30.0334 H     371  UNL371      0.0521
   2225 H           9.4528    9.6565   30.7773 H     371  UNL371      0.0521
   2226 H          12.1227    9.8748   31.7294 H     371  UNL371      0.2090
   2227 O           9.7956    9.7457   35.2183 O.3   372  UNL372     -0.3982
   2228 C           9.7862    9.5826   33.8120 C.3   372  UNL372      0.0330
   2229 H           9.7912   10.5636   33.3304 H     372  UNL372      0.0521
   2230 H           8.8955    9.0236   33.5151 H     372  UNL372      0.0521
   2231 H          10.6785    9.0277   33.5127 H     372  UNL372      0.0521
   2232 H           8.9926   10.2410   35.4538 H     372  UNL372      0.2090
   2233 O           9.6626   13.7347    0.4921 O.3   373  UNL373     -0.3982
   2234 C           9.9752   12.4544   -0.0252 C.3   373  UNL373      0.0330
   2235 H           9.7926   12.4411   -1.1026 H     373  UNL373      0.0521
   2236 H           9.3581   11.7001    0.4691 H     373  UNL373      0.0521
   2237 H          11.0296   12.2417    0.1661 H     373  UNL373      0.0521
   2238 H           8.7215   13.8953    0.3076 H     373  UNL373      0.2090
   2239 O           7.0406   12.8128    3.9646 O.3   374  UNL374     -0.3982
   2240 C           7.9858   12.9243    2.9164 C.3   374  UNL374      0.0330
   2241 H           7.6081   13.6121    2.1556 H     374  UNL374      0.0521
   2242 H           8.1620   11.9394    2.4772 H     374  UNL374      0.0521
   2243 H           8.9227   13.3126    3.3226 H     374  UNL374      0.0521
   2244 H           6.2204   12.4661    3.5740 H     374  UNL374      0.2090
   2245 O           9.5131   12.7038    5.4165 O.3   375  UNL375     -0.3982
   2246 C           8.6582   13.0113    6.5023 C.3   375  UNL375      0.0330
   2247 H           8.4308   12.0983    7.0582 H     375  UNL375      0.0521
   2248 H           7.7360   13.4602    6.1253 H     375  UNL375      0.0521
   2249 H           9.1630   13.7208    7.1621 H     375  UNL375      0.0521
   2250 H           9.0384   12.0728    4.8489 H     375  UNL375      0.2090
   2251 O           9.7662   12.7077    8.9024 O.3   376  UNL376     -0.3982
   2252 C           8.4550   12.8242    9.4236 C.3   376  UNL376      0.0330
   2253 H           8.4071   12.3419   10.4032 H     376  UNL376      0.0521
   2254 H           7.7464   12.3526    8.7384 H     376  UNL376      0.0521
   2255 H           8.2072   13.8830    9.5287 H     376  UNL376      0.0521
   2256 H           9.9577   11.7579    8.8203 H     376  UNL376      0.2090
   2257 O          10.8215   13.6183   13.1581 O.3   377  UNL377     -0.3982
   2258 C          10.5879   12.9057   11.9572 C.3   377  UNL377      0.0330
   2259 H           9.6904   12.2917   12.0655 H     377  UNL377      0.0521
   2260 H          11.4505   12.2731   11.7343 H     377  UNL377      0.0521
   2261 H          10.4424   13.6196   11.1431 H     377  UNL377      0.0521
   2262 H          10.9469   12.9590   13.8618 H     377  UNL377      0.2090
   2263 O          10.2791   13.1234   15.8720 O.3   378  UNL378     -0.3982
   2264 C           9.0269   12.8210   15.2847 C.3   378  UNL378      0.0330
   2265 H           8.4268   12.2349   15.9852 H     378  UNL378      0.0521
   2266 H           9.1830   12.2573   14.3617 H     378  UNL378      0.0521
   2267 H           8.5073   13.7543   15.0554 H     378  UNL378      0.0521
   2268 H          10.7165   12.2764   16.0641 H     378  UNL378      0.2090
   2269 O           9.3207   12.0314   19.3084 O.3   379  UNL379     -0.3982
   2270 C           8.5956   12.9510   18.5128 C.3   379  UNL379      0.0330
   2271 H           9.2722   13.4322   17.8023 H     379  UNL379      0.0521
   2272 H           8.1303   13.7024   19.1555 H     379  UNL379      0.0521
   2273 H           7.8190   12.4119   17.9652 H     379  UNL379      0.0521
   2274 H          10.0019   12.5384   19.7821 H     379  UNL379      0.2090
   2275 O           9.5321   12.9733   21.8734 O.3   380  UNL380     -0.3982
   2276 C           8.1234   13.0041   21.7347 C.3   380  UNL380      0.0330
   2277 H           7.6604   12.5276   22.6023 H     380  UNL380      0.0521
   2278 H           7.8349   12.4798   20.8204 H     380  UNL380      0.0521
   2279 H           7.7950   14.0444   21.6745 H     380  UNL380      0.0521
   2280 H           9.7938   12.0381   21.9242 H     380  UNL380      0.2090
   2281 O           9.6327   12.0037   24.7493 O.3   381  UNL381     -0.3982
   2282 C           8.8698   13.1487   25.0832 C.3   381  UNL381      0.0330
   2283 H           7.8506   12.8471   25.3374 H     381  UNL381      0.0521
   2284 H           8.8564   13.8384   24.2358 H     381  UNL381      0.0521
   2285 H           9.3271   13.6417   25.9443 H     381  UNL381      0.0521
   2286 H           9.2031   11.5877   23.9826 H     381  UNL381      0.2090
   2287 O           9.8421   12.9176   28.0089 O.3   382  UNL382     -0.3982
   2288 C           8.4517   12.7066   27.8453 C.3   382  UNL382      0.0330
   2289 H           7.9537   13.6651   27.6796 H     382  UNL382      0.0521
   2290 H           8.0480   12.2238   28.7387 H     382  UNL382      0.0521
   2291 H           8.2899   12.0598   26.9798 H     382  UNL382      0.0521
   2292 H           9.9543   13.4944   28.7837 H     382  UNL382      0.2090
   2293 O           9.5376   12.2312   30.9464 O.3   383  UNL383     -0.3982
   2294 C           8.5041   13.1298   31.3054 C.3   383  UNL383      0.0330
   2295 H           7.6666   12.5719   31.7315 H     383  UNL383      0.0521
   2296 H           8.1760   13.6812   30.4208 H     383  UNL383      0.0521
   2297 H           8.8868   13.8328   32.0490 H     383  UNL383      0.0521
   2298 H           9.1685   11.6204   30.2860 H     383  UNL383      0.2090
   2299 O           9.4291   12.5988   36.0659 O.3   384  UNL384     -0.3982
   2300 C           8.3367   12.7491   35.1779 C.3   384  UNL384      0.0330
   2301 H           8.7043   12.7843   34.1493 H     384  UNL384      0.0521
   2302 H           7.7972   13.6693   35.4150 H     384  UNL384      0.0521
   2303 H           7.6649   11.8953   35.2934 H     384  UNL384      0.0521
   2304 H          10.0073   13.3705   35.9408 H     384  UNL384      0.2090
   2305 O           9.6099   15.2471   -1.7861 O.3   385  UNL385     -0.3982
   2306 C           9.1129   16.3584   -1.0631 C.3   385  UNL385      0.0330
   2307 H           9.8070   17.1970   -1.1596 H     385  UNL385      0.0521
   2308 H           8.9964   16.0872   -0.0111 H     385  UNL385      0.0521
   2309 H           8.1413   16.6435   -1.4734 H     385  UNL385      0.0521
   2310 H          10.4721   15.0173   -1.3996 H     385  UNL385      0.2090
   2311 O           9.6936   15.7108    2.6677 O.3   386  UNL386     -0.3982
   2312 C           8.4646   16.0362    3.2908 C.3   386  UNL386      0.0330
   2313 H           7.6966   16.1861    2.5279 H     386  UNL386      0.0521
   2314 H           8.5857   16.9454    3.8847 H     386  UNL386      0.0521
   2315 H           8.1691   15.2128    3.9453 H     386  UNL386      0.0521
   2316 H           9.9300   16.4594    2.0939 H     386  UNL386      0.2090
   2317 O          10.3647   16.0642    7.0873 O.3   387  UNL387     -0.3982
   2318 C           9.4614   16.2330    6.0102 C.3   387  UNL387      0.0330
   2319 H           8.9839   15.2772    5.7806 H     387  UNL387      0.0521
   2320 H          10.0017   16.6021    5.1350 H     387  UNL387      0.0521
   2321 H           8.6978   16.9596    6.2974 H     387  UNL387      0.0521
   2322 H          11.0301   15.4145    6.8030 H     387  UNL387      0.2090
   2323 O           9.6831   15.8377    9.5287 O.3   388  UNL388     -0.3982
   2324 C           8.3556   16.2091    9.2055 C.3   388  UNL388      0.0330
   2325 H           7.6621   15.4564    9.5887 H     388  UNL388      0.0521
   2326 H           8.2542   16.2949    8.1209 H     388  UNL388      0.0521
   2327 H           8.1342   17.1741    9.6674 H     388  UNL388      0.0521
   2328 H           9.8504   14.9784    9.1054 H     388  UNL388      0.2090
   2329 O           9.5193   16.9329   12.9193 O.3   389  UNL389     -0.3982
   2330 C           8.9525   15.7931   12.2994 C.3   389  UNL389      0.0330
   2331 H           8.0918   16.0948   11.6974 H     389  UNL389      0.0521
   2332 H           8.6426   15.0774   13.0648 H     389  UNL389      0.0521
   2333 H           9.7022   15.3304   11.6532 H     389  UNL389      0.0521
   2334 H           8.8313   17.3218   13.4858 H     389  UNL389      0.2090
   2335 O           9.7199   16.0107   15.3215 O.3   390  UNL390     -0.3982
   2336 C           8.3850   16.2730   15.7139 C.3   390  UNL390      0.0330
   2337 H           7.9843   15.4075   16.2474 H     390  UNL390      0.0521
   2338 H           7.7787   16.4819   14.8292 H     390  UNL390      0.0521
   2339 H           8.3733   17.1430   16.3746 H     390  UNL390      0.0521
   2340 H           9.6984   15.2344   14.7365 H     390  UNL390      0.2090
   2341 O           9.5639   15.8887   18.3969 O.3   391  UNL391     -0.3982
   2342 C           8.3364   16.2940   18.9745 C.3   391  UNL391      0.0330
   2343 H           7.8893   15.4528   19.5100 H     391  UNL391      0.0521
   2344 H           7.6602   16.6408   18.1893 H     391  UNL391      0.0521
   2345 H           8.5260   17.1101   19.6757 H     391  UNL391      0.0521
   2346 H           9.3639   15.1642   17.7799 H     391  UNL391      0.2090
   2347 O          10.1783   15.6993   20.9392 O.3   392  UNL392     -0.3982
   2348 C          10.7714   15.8921   22.2103 C.3   392  UNL392      0.0330
   2349 H          10.2173   16.6571   22.7598 H     392  UNL392      0.0521
   2350 H          11.8121   16.2005   22.0846 H     392  UNL392      0.0521
   2351 H          10.7369   14.9514   22.7648 H     392  UNL392      0.0521
   2352 H          10.2236   16.5502   20.4708 H     392  UNL392      0.2090
   2353 O          11.7617   16.2350   24.5979 O.3   393  UNL393     -0.3982
   2354 C          10.5269   15.8877   25.1972 C.3   393  UNL393      0.0330
   2355 H           9.7817   15.7052   24.4189 H     393  UNL393      0.0521
   2356 H          10.1966   16.6995   25.8498 H     393  UNL393      0.0521
   2357 H          10.6623   14.9794   25.7891 H     393  UNL393      0.0521
   2358 H          11.6104   17.0438   24.0798 H     393  UNL393      0.2090
   2359 O           9.3356   15.4506   27.3591 O.3   394  UNL394     -0.3982
   2360 C           8.7554   16.4719   28.1496 C.3   394  UNL394      0.0330
   2361 H           8.0324   16.0322   28.8412 H     394  UNL394      0.0521
   2362 H           8.2600   17.1986   27.5012 H     394  UNL394      0.0521
   2363 H           9.5430   16.9717   28.7183 H     394  UNL394      0.0521
   2364 H           8.6131   15.0255   26.8664 H     394  UNL394      0.2090
   2365 O          10.1205   15.2540   30.1823 O.3   395  UNL395     -0.3982
   2366 C          10.6659   16.3568   30.8830 C.3   395  UNL395      0.0330
   2367 H          10.7926   17.1986   30.1977 H     395  UNL395      0.0521
   2368 H          11.6300   16.0753   31.3135 H     395  UNL395      0.0521
   2369 H           9.9809   16.6423   31.6848 H     395  UNL395      0.0521
   2370 H          10.7499   15.0235   29.4778 H     395  UNL395      0.2090
   2371 O           9.2340   16.2805   35.1430 O.3   396  UNL396     -0.3982
   2372 C           8.6501   15.9580   33.8941 C.3   396  UNL396      0.0330
   2373 H           8.2845   16.8700   33.4155 H     396  UNL396      0.0521
   2374 H           7.8251   15.2579   34.0465 H     396  UNL396      0.0521
   2375 H           9.4066   15.4932   33.2576 H     396  UNL396      0.0521
   2376 H           8.5393   16.6909   35.6856 H     396  UNL396      0.2090
   2377 O           9.7520   19.5554    0.3331 O.3   397  UNL397     -0.3982
   2378 C           8.4263   19.4699   -0.1564 C.3   397  UNL397      0.0330
   2379 H           7.8241   18.8628    0.5241 H     397  UNL397      0.0521
   2380 H           8.4331   19.0214   -1.1528 H     397  UNL397      0.0521
   2381 H           8.0036   20.4757   -0.2149 H     397  UNL397      0.0521
   2382 H          10.1005   18.6485    0.3739 H     397  UNL397      0.2090
   2383 O           9.2767   18.5979    2.5684 O.3   398  UNL398     -0.3982
   2384 C           8.6353   19.6155    3.3152 C.3   398  UNL398      0.0330
   2385 H           7.8431   19.1759    3.9264 H     398  UNL398      0.0521
   2386 H           8.2143   20.3585    2.6335 H     398  UNL398      0.0521
   2387 H           9.3701   20.0958    3.9655 H     398  UNL398      0.0521
   2388 H           8.6002   18.1902    2.0013 H     398  UNL398      0.2090
   2389 O          11.0000   19.5287    5.9429 O.3   399  UNL399     -0.3982
   2390 C           9.6385   19.1708    6.0940 C.3   399  UNL399      0.0330
   2391 H           9.0204   20.0720    6.0817 H     399  UNL399      0.0521
   2392 H           9.5039   18.6365    7.0376 H     399  UNL399      0.0521
   2393 H           9.3480   18.5210    5.2652 H     399  UNL399      0.0521
   2394 H          11.2288   20.1047    6.6922 H     399  UNL399      0.2090
   2395 O           9.8999   18.7209    9.6546 O.3   400  UNL400     -0.3982
   2396 C           8.7530   19.4469    9.2519 C.3   400  UNL400      0.0330
   2397 H           8.0591   18.7776    8.7373 H     400  UNL400      0.0521
   2398 H           9.0511   20.2613    8.5872 H     400  UNL400      0.0521
   2399 H           8.2662   19.8620   10.1376 H     400  UNL400      0.0521
   2400 H          10.3103   18.3649    8.8481 H     400  UNL400      0.2090
   2401 O           9.4443   19.3621   12.5152 O.3   401  UNL401     -0.3982
   2402 C           8.0455   19.1760   12.3995 C.3   401  UNL401      0.0330
   2403 H           7.5915   20.0742   11.9735 H     401  UNL401      0.0521
   2404 H           7.6213   18.9732   13.3859 H     401  UNL401      0.0521
   2405 H           7.8534   18.3258   11.7409 H     401  UNL401      0.0521
   2406 H           9.5835   20.1225   13.1050 H     401  UNL401      0.2090
   2407 O           9.8347   19.0972   15.1267 O.3   402  UNL402     -0.3982
   2408 C           8.5468   19.5420   15.5115 C.3   402  UNL402      0.0330
   2409 H           8.5924   19.9663   16.5176 H     402  UNL402      0.0521
   2410 H           7.8488   18.7016   15.4903 H     402  UNL402      0.0521
   2411 H           8.2115   20.3092   14.8097 H     402  UNL402      0.0521
   2412 H          10.1055   18.4176   15.7673 H     402  UNL402      0.2090
   2413 O          10.1469   20.3196   18.2834 O.3   403  UNL403     -0.3982
   2414 C           9.6000   19.1306   18.8234 C.3   403  UNL403      0.0330
   2415 H          10.2466   18.7615   19.6234 H     403  UNL403      0.0521
   2416 H           9.5117   18.3786   18.0355 H     403  UNL403      0.0521
   2417 H           8.6093   19.3476   19.2296 H     403  UNL403      0.0521
   2418 H          11.0251   20.0958   17.9309 H     403  UNL403      0.2090
   2419 O           9.8866   19.6238   21.9752 O.3   404  UNL404     -0.3982
   2420 C           8.6230   19.0962   21.6155 C.3   404  UNL404      0.0330
   2421 H           8.0884   19.8195   20.9947 H     404  UNL404      0.0521
   2422 H           8.0474   18.8793   22.5187 H     404  UNL404      0.0521
   2423 H           8.7712   18.1732   21.0502 H     404  UNL404      0.0521
   2424 H           9.7230   20.4416   22.4752 H     404  UNL404      0.2090
   2425 O           9.1547   18.7740   24.3747 O.3   405  UNL405     -0.3982
   2426 C           8.1684   19.5726   25.0024 C.3   405  UNL405      0.0330
   2427 H           8.6528   20.3318   25.6214 H     405  UNL405      0.0521
   2428 H           7.5249   18.9405   25.6191 H     405  UNL405      0.0521
   2429 H           7.5658   20.0623   24.2338 H     405  UNL405      0.0521
   2430 H           9.6731   18.3525   25.0812 H     405  UNL405      0.2090
   2431 O          11.6796   19.1144   27.9279 O.3   406  UNL406     -0.3982
   2432 C          10.4174   19.6151   28.3286 C.3   406  UNL406      0.0330
   2433 H           9.7126   18.7866   28.4343 H     406  UNL406      0.0521
   2434 H          10.0525   20.3250   27.5824 H     406  UNL406      0.0521
   2435 H          10.5256   20.1234   29.2896 H     406  UNL406      0.0521
   2436 H          11.5520   18.6691   27.0730 H     406  UNL406      0.2090
   2437 O           9.3361   19.4375   31.9756 O.3   407  UNL407     -0.3982
   2438 C           8.4403   19.1745   30.9113 C.3   407  UNL407      0.0330
   2439 H           8.2682   20.0922   30.3434 H     407  UNL407      0.0521
   2440 H           7.4959   18.7995   31.3131 H     407  UNL407      0.0521
   2441 H           8.8799   18.4197   30.2552 H     407  UNL407      0.0521
   2442 H           8.9191   20.1103   32.5404 H     407  UNL407      0.2090
   2443 O           9.9538   19.3174   36.0743 O.3   408  UNL408     -0.3982
   2444 C          11.0831   19.4819   35.2363 C.3   408  UNL408      0.0330
   2445 H          10.7596   19.8264   34.2509 H     408  UNL408      0.0521
   2446 H          11.6123   18.5302   35.1457 H     408  UNL408      0.0521
   2447 H          11.7491   20.2259   35.6796 H     408  UNL408      0.0521
   2448 H           9.3817   18.6519   35.6555 H     408  UNL408      0.2090
   2449 O           9.0780   21.6617   -2.1095 O.3   409  UNL409     -0.3982
   2450 C           8.7390   22.8740   -1.4613 C.3   409  UNL409      0.0330
   2451 H           9.4418   23.6562   -1.7588 H     409  UNL409      0.0521
   2452 H           8.7733   22.7311   -0.3785 H     409  UNL409      0.0521
   2453 H           7.7280   23.1641   -1.7565 H     409  UNL409      0.0521
   2454 H           9.9795   21.4298   -1.8283 H     409  UNL409      0.2090
   2455 O           9.5879   22.2554    3.6874 O.3   410  UNL410     -0.3982
   2456 C           8.4656   22.8132    3.0288 C.3   410  UNL410      0.0330
   2457 H           7.7222   22.0326    2.8492 H     410  UNL410      0.0521
   2458 H           8.7811   23.2558    2.0809 H     410  UNL410      0.0521
   2459 H           8.0303   23.5887    3.6635 H     410  UNL410      0.0521
   2460 H           9.9526   21.5712    3.1005 H     410  UNL410      0.2090
   2461 O          10.0392   22.7924    6.1677 O.3   411  UNL411     -0.3982
   2462 C           8.6290   22.8267    6.2894 C.3   411  UNL411      0.0330
   2463 H           8.2892   21.9507    6.8475 H     411  UNL411      0.0521
   2464 H           8.1768   22.8363    5.2948 H     411  UNL411      0.0521
   2465 H           8.3407   23.7329    6.8272 H     411  UNL411      0.0521
   2466 H          10.2647   21.9779    5.6869 H     411  UNL411      0.2090
   2467 O           9.8184   22.6085    8.9999 O.3   412  UNL412     -0.3982
   2468 C           8.4517   22.6169    9.3695 C.3   412  UNL412      0.0330
   2469 H           8.2206   21.7106    9.9348 H     412  UNL412      0.0521
   2470 H           7.8309   22.6674    8.4717 H     412  UNL412      0.0521
   2471 H           8.2579   23.4924    9.9936 H     412  UNL412      0.0521
   2472 H           9.9601   21.8211    8.4472 H     412  UNL412      0.2090
   2473 O           9.5127   22.5074   12.3296 O.3   413  UNL413     -0.3982
   2474 C           8.1043   22.6073   12.4335 C.3   413  UNL413      0.0330
   2475 H           7.7945   23.6343   12.2248 H     413  UNL413      0.0521
   2476 H           7.7909   22.3182   13.4396 H     413  UNL413      0.0521
   2477 H           7.6457   21.9354   11.7042 H     413  UNL413      0.0521
   2478 H           9.8915   23.1143   12.9882 H     413  UNL413      0.2090
   2479 O          10.4362   21.9947   15.7821 O.3   414  UNL414     -0.3982
   2480 C           9.3176   22.8508   15.6404 C.3   414  UNL414      0.0330
   2481 H           8.4110   22.2514   15.5256 H     414  UNL414      0.0521
   2482 H           9.4566   23.4916   14.7662 H     414  UNL414      0.0521
   2483 H           9.2302   23.4722   16.5347 H     414  UNL414      0.0521
   2484 H          10.4881   21.4562   14.9741 H     414  UNL414      0.2090
   2485 O           8.9219   23.5684   18.7014 O.3   415  UNL415     -0.3982
   2486 C           8.1564   22.3776   18.7191 C.3   415  UNL415      0.0330
   2487 H           8.6548   21.6321   19.3436 H     415  UNL415      0.0521
   2488 H           8.0456   21.9995   17.6999 H     415  UNL415      0.0521
   2489 H           7.1694   22.5958   19.1336 H     415  UNL415      0.0521
   2490 H           9.7915   23.3435   18.3289 H     415  UNL415      0.2090
   2491 O           9.8158   22.4321   21.5765 O.3   416  UNL416     -0.3982
   2492 C           8.4952   22.7806   21.9496 C.3   416  UNL416      0.0330
   2493 H           8.0164   21.9280   22.4375 H     416  UNL416      0.0521
   2494 H           7.9292   23.0707   21.0611 H     416  UNL416      0.0521
   2495 H           8.5330   23.6219   22.6456 H     416  UNL416      0.0521
   2496 H           9.7501   21.6836   20.9593 H     416  UNL416      0.2090
   2497 O           9.6632   22.1757   24.4492 O.3   417  UNL417     -0.3982
   2498 C           8.6036   22.8357   25.1171 C.3   417  UNL417      0.0330
   2499 H           8.0612   22.1192   25.7390 H     417  UNL417      0.0521
   2500 H           7.9287   23.2801   24.3815 H     417  UNL417      0.0521
   2501 H           9.0186   23.6235   25.7502 H     417  UNL417      0.0521
   2502 H           9.2644   21.4828   23.8957 H     417  UNL417      0.2090
   2503 O          11.5184   22.4940   28.2243 O.3   418  UNL418     -0.3982
   2504 C          10.1810   22.7945   27.8701 C.3   418  UNL418      0.0330
   2505 H           9.5513   22.7652   28.7629 H     418  UNL418      0.0521
   2506 H           9.8252   22.0671   27.1364 H     418  UNL418      0.0521
   2507 H          10.1452   23.7956   27.4343 H     418  UNL418      0.0521
   2508 H          11.5185   21.6005   28.6079 H     418  UNL418      0.2090
   2509 O           9.7300   23.0357   30.9387 O.3   419  UNL419     -0.3982
   2510 C           8.3993   22.6360   31.2108 C.3   419  UNL419      0.0330
   2511 H           8.3883   21.9668   32.0746 H     419  UNL419      0.0521
   2512 H           7.9848   22.1273   30.3370 H     419  UNL419      0.0521
   2513 H           7.8002   23.5225   31.4317 H     419  UNL419      0.0521
   2514 H          10.2370   22.2285   30.7464 H     419  UNL419      0.2090
   2515 O           9.5999   22.4135   36.0542 O.3   420  UNL420     -0.3982
   2516 C           8.3415   22.4430   35.4060 C.3   420  UNL420      0.0330
   2517 H           8.4660   22.8064   34.3829 H     420  UNL420      0.0521
   2518 H           7.6623   23.0983   35.9567 H     420  UNL420      0.0521
   2519 H           7.9297   21.4313   35.3835 H     420  UNL420      0.0521
   2520 H           9.9402   23.3244   36.0590 H     420  UNL420      0.2090
   2521 O          10.2486   26.2385   -2.0214 O.3   421  UNL421     -0.3982
   2522 C          11.0341   25.8651   -0.9042 C.3   421  UNL421      0.0330
   2523 H          11.4639   24.8748   -1.0744 H     421  UNL421      0.0521
   2524 H          10.4108   25.8541   -0.0068 H     421  UNL421      0.0521
   2525 H          11.8393   26.5924   -0.7770 H     421  UNL421      0.0521
   2526 H           9.5430   25.5752   -2.1090 H     421  UNL421      0.2090
   2527 O          11.8040   25.9022    3.2545 O.3   422  UNL422     -0.3982
   2528 C          10.4033   25.7971    3.0766 C.3   422  UNL422      0.0330
   2529 H          10.1771   24.9164    2.4705 H     422  UNL422      0.0521
   2530 H          10.0293   26.6978    2.5837 H     422  UNL422      0.0521
   2531 H           9.9276   25.6956    4.0549 H     422  UNL422      0.0521
   2532 H          12.1984   25.9911    2.3701 H     422  UNL422      0.2090
   2533 O          11.0873   28.0549    5.1591 O.3   423  UNL423     -0.3982
   2534 C          10.5978   27.4241    6.3282 C.3   423  UNL423      0.0330
   2535 H          11.0501   27.8861    7.2093 H     423  UNL423      0.0521
   2536 H          10.8400   26.3590    6.2972 H     423  UNL423      0.0521
   2537 H           9.5131   27.5477    6.3710 H     423  UNL423      0.0521
   2538 H          12.0514   27.9285    5.1486 H     423  UNL423      0.2090
   2539 O           9.7524   26.1221    9.6058 O.3   424  UNL424     -0.3982
   2540 C          11.0313   25.5844    9.3231 C.3   424  UNL424      0.0330
   2541 H          11.8031   26.2783    9.6654 H     424  UNL424      0.0521
   2542 H          11.1276   25.4173    8.2475 H     424  UNL424      0.0521
   2543 H          11.1408   24.6329    9.8486 H     424  UNL424      0.0521
   2544 H           9.6846   26.9652    9.1262 H     424  UNL424      0.2090
   2545 O          10.6881   26.9062   12.2530 O.3   425  UNL425     -0.3982
   2546 C          10.6439   25.5381   12.6149 C.3   425  UNL425      0.0330
   2547 H          11.6374   25.2120   12.9325 H     425  UNL425      0.0521
   2548 H          10.3099   24.9449   11.7602 H     425  UNL425      0.0521
   2549 H           9.9400   25.4117   13.4408 H     425  UNL425      0.0521
   2550 H          11.3203   26.9872   11.5186 H     425  UNL425      0.2090
   2551 O          11.1085   26.8628   15.5357 O.3   426  UNL426     -0.3982
   2552 C          10.7105   25.5176   15.7269 C.3   426  UNL426      0.0330
   2553 H          11.2533   24.8736   15.0306 H     426  UNL426      0.0521
   2554 H           9.6344   25.4278   15.5597 H     426  UNL426      0.0521
   2555 H          10.9438   25.2204   16.7521 H     426  UNL426      0.0521
   2556 H          10.8891   27.0979   14.6181 H     426  UNL426      0.2090
   2557 O           9.8316   27.1738   18.7105 O.3   427  UNL427     -0.3982
   2558 C           8.4470   27.0669   18.4349 C.3   427  UNL427      0.0330
   2559 H           8.1553   27.8428   17.7228 H     427  UNL427      0.0521
   2560 H           7.8804   27.1771   19.3627 H     427  UNL427      0.0521
   2561 H           8.2458   26.0841   18.0022 H     427  UNL427      0.0521
   2562 H           9.9795   28.0554   19.0932 H     427  UNL427      0.2090
   2563 O          10.8621   26.8103   21.6838 O.3   428  UNL428     -0.3982
   2564 C          10.9191   25.3996   21.5782 C.3   428  UNL428      0.0330
   2565 H          10.6215   25.0964   20.5713 H     428  UNL428      0.0521
   2566 H          10.2515   24.9507   22.3177 H     428  UNL428      0.0521
   2567 H          11.9434   25.0702   21.7677 H     428  UNL428      0.0521
   2568 H           9.9420   27.0729   21.5108 H     428  UNL428      0.2090
   2569 O          11.0664   26.7923   24.4788 O.3   429  UNL429     -0.3982
   2570 C          10.5382   25.6491   25.1258 C.3   429  UNL429      0.0330
   2571 H          11.3397   25.1233   25.6507 H     429  UNL429      0.0521
   2572 H          10.0794   24.9896   24.3851 H     429  UNL429      0.0521
   2573 H           9.7808   25.9668   25.8463 H     429  UNL429      0.0521
   2574 H          11.7351   26.4791   23.8461 H     429  UNL429      0.2090
   2575 O          10.4233   28.0460   27.1710 O.3   430  UNL430     -0.3982
   2576 C          10.6897   27.3059   28.3482 C.3   430  UNL430      0.0330
   2577 H          11.6234   27.6552   28.7959 H     430  UNL430      0.0521
   2578 H          10.7660   26.2439   28.1024 H     430  UNL430      0.0521
   2579 H           9.8705   27.4560   29.0553 H     430  UNL430      0.0521
   2580 H          11.1666   27.8932   26.5631 H     430  UNL430      0.2090
   2581 O          11.6448   25.6786   30.5142 O.3   431  UNL431     -0.3982
   2582 C          10.5859   26.0352   31.3838 C.3   431  UNL431      0.0330
   2583 H          10.3801   25.2077   32.0673 H     431  UNL431      0.0521
   2584 H           9.6939   26.2677   30.7971 H     431  UNL431      0.0521
   2585 H          10.8803   26.9159   31.9596 H     431  UNL431      0.0521
   2586 H          11.3545   24.8950   30.0171 H     431  UNL431      0.2090
   2587 O           9.8353   26.1158   34.6224 O.3   432  UNL432     -0.3982
   2588 C           8.5505   25.9342   34.0561 C.3   432  UNL432      0.0330
   2589 H           7.8391   25.6684   34.8421 H     432  UNL432      0.0521
   2590 H           8.5914   25.1425   33.3041 H     432  UNL432      0.0521
   2591 H           8.2356   26.8672   33.5830 H     432  UNL432      0.0521
   2592 H          10.0878   25.2720   35.0345 H     432  UNL432      0.2090
   2593 O          11.5674    0.6667   -0.2494 O.3   433  UNL433     -0.3982
   2594 C          11.6295   -0.2515   -1.3254 C.3   433  UNL433      0.0330
   2595 H          12.0200   -1.2075   -0.9677 H     433  UNL433      0.0521
   2596 H          12.2770    0.1482   -2.1096 H     433  UNL433      0.0521
   2597 H          10.6237   -0.3981   -1.7259 H     433  UNL433      0.0521
   2598 H          12.4738    0.7766    0.0851 H     433  UNL433      0.2090
   2599 O          12.6891   -1.0615    1.5125 O.3   434  UNL434     -0.3982
   2600 C          13.9683   -1.1027    0.9073 C.3   434  UNL434      0.0330
   2601 H          13.9246   -1.7131    0.0019 H     434  UNL434      0.0521
   2602 H          14.6912   -1.5249    1.6096 H     434  UNL434      0.0521
   2603 H          14.2700   -0.0861    0.6445 H     434  UNL434      0.0521
   2604 H          12.4484   -1.9771    1.7344 H     434  UNL434      0.2090
   2605 O          13.3733   -1.6291    6.7041 O.3   435  UNL435     -0.3982
   2606 C          12.4621   -1.0908    5.7637 C.3   435  UNL435      0.0330
   2607 H          11.9640   -0.2190    6.1953 H     435  UNL435      0.0521
   2608 H          11.7234   -1.8499    5.4950 H     435  UNL435      0.0521
   2609 H          13.0119   -0.7880    4.8694 H     435  UNL435      0.0521
   2610 H          12.8568   -1.8887    7.4860 H     435  UNL435      0.2090
   2611 O          13.3388   -0.3142    9.2496 O.3   436  UNL436     -0.3982
   2612 C          11.9235   -0.2877    9.2242 C.3   436  UNL436      0.0330
   2613 H          11.5821    0.0575    8.2451 H     436  UNL436      0.0521
   2614 H          11.5566    0.3813   10.0064 H     436  UNL436      0.0521
   2615 H          11.5459   -1.2969    9.4043 H     436  UNL436      0.0521
   2616 H          13.6445    0.5945    9.0870 H     436  UNL436      0.2090
   2617 O          11.8299   -1.0773   13.2872 O.3   437  UNL437     -0.3982
   2618 C          12.6292   -1.1019   12.1188 C.3   437  UNL437      0.0330
   2619 H          12.2046   -1.8077   11.4006 H     437  UNL437      0.0521
   2620 H          13.6479   -1.3992   12.3794 H     437  UNL437      0.0521
   2621 H          12.6452   -0.1023   11.6782 H     437  UNL437      0.0521
   2622 H          11.8347   -1.9771   13.6557 H     437  UNL437      0.2090
   2623 O          14.2239   -1.6698   14.6490 O.3   438  UNL438     -0.3982
   2624 C          13.2801   -1.1622   15.5742 C.3   438  UNL438      0.0330
   2625 H          12.6665   -0.3992   15.0887 H     438  UNL438      0.0521
   2626 H          13.8038   -0.7324   16.4316 H     438  UNL438      0.0521
   2627 H          12.6399   -1.9799   15.9136 H     438  UNL438      0.0521
   2628 H          14.7772   -0.9220   14.3660 H     438  UNL438      0.2090
   2629 O          13.5408   -1.1000   18.5772 O.3   439  UNL439     -0.3982
   2630 C          12.1347   -1.1000   18.7425 C.3   439  UNL439      0.0330
   2631 H          11.8518   -1.8694   19.4652 H     439  UNL439      0.0521
   2632 H          11.6539   -1.2943   17.7806 H     439  UNL439      0.0521
   2633 H          11.8205   -0.1216   19.1133 H     439  UNL439      0.0521
   2634 H          13.7898   -1.9802   18.2475 H     439  UNL439      0.2090
   2635 O          14.9597   -1.9750   22.0458 O.3   440  UNL440     -0.3982
   2636 C          14.0595   -1.0322   21.4933 C.3   440  UNL440      0.0330
   2637 H          14.5706   -0.4452   20.7262 H     440  UNL440      0.0521
   2638 H          13.6885   -0.3749   22.2835 H     440  UNL440      0.0521
   2639 H          13.2195   -1.5653   21.0417 H     440  UNL440      0.0521
   2640 H          15.6937   -1.4728   22.4389 H     440  UNL440      0.2090
   2641 O          15.1242   -1.9793   25.2056 O.3   441  UNL441     -0.3982
   2642 C          14.2940   -1.0297   24.5626 C.3   441  UNL441      0.0330
   2643 H          14.9088   -0.3532   23.9637 H     441  UNL441      0.0521
   2644 H          13.7366   -0.4643   25.3133 H     441  UNL441      0.0521
   2645 H          13.5926   -1.5550   23.9102 H     441  UNL441      0.0521
   2646 H          15.7354   -1.4840   25.7772 H     441  UNL441      0.2090
   2647 O          13.5909   -0.0949   28.1694 O.3   442  UNL442     -0.3982
   2648 C          12.2033   -0.2957   27.9728 C.3   442  UNL442      0.0330
   2649 H          11.9619   -1.3508   28.1235 H     442  UNL442      0.0521
   2650 H          11.9299    0.0106   26.9602 H     442  UNL442      0.0521
   2651 H          11.6508    0.3091   28.6957 H     442  UNL442      0.0521
   2652 H          14.0547   -0.6438   27.5143 H     442  UNL442      0.2090
   2653 O          11.5112    0.3286   31.7034 O.3   443  UNL443     -0.3982
   2654 C          12.6506   -0.1121   30.9879 C.3   443  UNL443      0.0330
   2655 H          12.3755   -0.9506   30.3433 H     443  UNL443      0.0521
   2656 H          13.4276   -0.4197   31.6920 H     443  UNL443      0.0521
   2657 H          13.0240    0.7101   30.3730 H     443  UNL443      0.0521
   2658 H          11.2026   -0.4217   32.2394 H     443  UNL443      0.2090
   2659 O          13.9505   -0.9852   35.2889 O.3   444  UNL444     -0.3982
   2660 C          12.5393   -0.8711   35.2807 C.3   444  UNL444      0.0330
   2661 H          12.1116   -1.5763   35.9977 H     444  UNL444      0.0521
   2662 H          12.1618   -1.0814   34.2771 H     444  UNL444      0.0521
   2663 H          12.2635    0.1470   35.5654 H     444  UNL444      0.0521
   2664 H          14.1648   -1.8984   35.0326 H     444  UNL444      0.2090
   2665 O          12.3309    2.5606   -2.0950 O.3   445  UNL445     -0.3982
   2666 C          12.4642    3.4882   -1.0338 C.3   445  UNL445      0.0330
   2667 H          13.3715    4.0801   -1.1777 H     445  UNL445      0.0521
   2668 H          12.5137    2.9512   -0.0834 H     445  UNL445      0.0521
   2669 H          11.5960    4.1513   -1.0303 H     445  UNL445      0.0521
   2670 H          13.1152    1.9863   -2.0727 H     445  UNL445      0.2090
   2671 O          13.8428    1.6389    3.0035 O.3   446  UNL446     -0.3982
   2672 C          12.4561    1.9056    2.9026 C.3   446  UNL446      0.0330
   2673 H          11.9004    1.1836    3.5062 H     446  UNL446      0.0521
   2674 H          12.1462    1.8375    1.8570 H     446  UNL446      0.0521
   2675 H          12.2604    2.9144    3.2734 H     446  UNL446      0.0521
   2676 H          13.9857    0.7377    2.6675 H     446  UNL446      0.2090
   2677 O          15.2953    0.5330    5.9715 O.3   447  UNL447     -0.3982
   2678 C          14.3383    1.4941    6.3779 C.3   447  UNL447      0.0330
   2679 H          13.4747    0.9872    6.8155 H     447  UNL447      0.0521
   2680 H          14.0272    2.0873    5.5145 H     447  UNL447      0.0521
   2681 H          14.7897    2.1511    7.1250 H     447  UNL447      0.0521
   2682 H          14.8663   -0.0350    5.3091 H     447  UNL447      0.2090
   2683 O          13.5496    2.8164    9.3898 O.3   448  UNL448     -0.3982
   2684 C          12.1658    2.6669    9.1306 C.3   448  UNL448      0.0330
   2685 H          11.7431    3.6307    8.8360 H     448  UNL448      0.0521
   2686 H          11.6642    2.2959   10.0276 H     448  UNL448      0.0521
   2687 H          12.0321    1.9492    8.3178 H     448  UNL448      0.0521
   2688 H          13.6367    3.4586   10.1149 H     448  UNL448      0.2090
   2689 O          12.3421    3.0767   13.4585 O.3   449  UNL449     -0.3982
   2690 C          12.7202    2.9168   12.1035 C.3   449  UNL449      0.0330
   2691 H          13.7737    3.1818   11.9845 H     449  UNL449      0.0521
   2692 H          12.0988    3.5574   11.4730 H     449  UNL449      0.0521
   2693 H          12.5743    1.8733   11.8146 H     449  UNL449      0.0521
   2694 H          12.4824    4.0116   13.6858 H     449  UNL449      0.2090
   2695 O          15.1418    1.4184   15.7696 O.3   450  UNL450     -0.3982
   2696 C          13.7688    1.7247   15.6095 C.3   450  UNL450      0.0330
   2697 H          13.1957    1.2683   16.4204 H     450  UNL450      0.0521
   2698 H          13.4204    1.3470   14.6452 H     450  UNL450      0.0521
   2699 H          13.6407    2.8092   15.6414 H     450  UNL450      0.0521
   2700 H          15.2241    0.4501   15.7371 H     450  UNL450      0.2090
   2701 O          13.9249    2.0247   18.6833 O.3   451  UNL451     -0.3982
   2702 C          13.0875    3.1660   18.6562 C.3   451  UNL451      0.0330
   2703 H          12.4127    3.1444   19.5156 H     451  UNL451      0.0521
   2704 H          12.5117    3.1745   17.7275 H     451  UNL451      0.0521
   2705 H          13.7084    4.0635   18.7057 H     451  UNL451      0.0521
   2706 H          13.3462    1.2446   18.6381 H     451  UNL451      0.2090
   2707 O          14.9257    4.0078   22.5009 O.3   452  UNL452     -0.3982
   2708 C          14.5039    3.3755   21.3065 C.3   452  UNL452      0.0330
   2709 H          13.4404    3.1343   21.3767 H     452  UNL452      0.0521
   2710 H          15.0857    2.4637   21.1508 H     452  UNL452      0.0521
   2711 H          14.6663    4.0563   20.4676 H     452  UNL452      0.0521
   2712 H          14.7695    3.3801   23.2270 H     452  UNL452      0.2090
   2713 O          13.5044    1.6745   24.8119 O.3   453  UNL453     -0.3982
   2714 C          14.8858    1.8491   25.0682 C.3   453  UNL453      0.0330
   2715 H          15.0876    2.9019   25.2811 H     453  UNL453      0.0521
   2716 H          15.4624    1.5252   24.1984 H     453  UNL453      0.0521
   2717 H          15.1658    1.2444   25.9339 H     453  UNL453      0.0521
   2718 H          13.2856    2.2227   24.0392 H     453  UNL453      0.2090
   2719 O          13.3910    2.3847   27.3815 O.3   454  UNL454     -0.3982
   2720 C          12.5815    3.0362   28.3431 C.3   454  UNL454      0.0330
   2721 H          12.1649    3.9497   27.9114 H     454  UNL454      0.0521
   2722 H          13.1825    3.2776   29.2232 H     454  UNL454      0.0521
   2723 H          11.7669    2.3684   28.6330 H     454  UNL454      0.0521
   2724 H          14.1045    3.0012   27.1438 H     454  UNL454      0.2090
   2725 O          15.1813    2.9781   30.7146 O.3   455  UNL455     -0.3982
   2726 C          14.2426    3.2606   31.7361 C.3   455  UNL455      0.0330
   2727 H          13.9619    2.3329   32.2411 H     455  UNL455      0.0521
   2728 H          13.3587    3.7322   31.2997 H     455  UNL455      0.0521
   2729 H          14.6977    3.9426   32.4581 H     455  UNL455      0.0521
   2730 H          14.7493    2.3713   30.0895 H     455  UNL455      0.2090
   2731 O          11.9404    2.3055   34.0914 O.3   456  UNL456     -0.3982
   2732 C          12.8150    3.3519   34.4715 C.3   456  UNL456      0.0330
   2733 H          12.6277    4.2294   33.8476 H     456  UNL456      0.0521
   2734 H          13.8505    3.0229   34.3549 H     456  UNL456      0.0521
   2735 H          12.6314    3.6059   35.5181 H     456  UNL456      0.0521
   2736 H          12.1265    2.1021   33.1589 H     456  UNL456      0.2090
   2737 O          11.6684    6.2602    0.7864 O.3   457  UNL457     -0.3982
   2738 C          12.7740    6.5254   -0.0573 C.3   457  UNL457      0.0330
   2739 H          12.4162    6.8044   -1.0515 H     457  UNL457      0.0521
   2740 H          13.4057    5.6361   -0.1219 H     457  UNL457      0.0521
   2741 H          13.3527    7.3507    0.3642 H     457  UNL457      0.0521
   2742 H          11.1744    5.5241    0.3871 H     457  UNL457      0.2090
   2743 O          13.5004    5.2647    3.3336 O.3   458  UNL458     -0.3982
   2744 C          13.6276    6.6748    3.3465 C.3   458  UNL458      0.0330
   2745 H          12.7795    7.1131    3.8784 H     458  UNL458      0.0521
   2746 H          13.6600    7.0480    2.3201 H     458  UNL458      0.0521
   2747 H          14.5544    6.9432    3.8589 H     458  UNL458      0.0521
   2748 H          12.6697    5.0570    2.8728 H     458  UNL458      0.2090
   2749 O          13.6050    4.8158    6.8306 O.3   459  UNL459     -0.3982
   2750 C          14.6994    4.7885    5.9329 C.3   459  UNL459      0.0330
   2751 H          14.5294    4.0220    5.1727 H     459  UNL459      0.0521
   2752 H          15.6182    4.5730    6.4837 H     459  UNL459      0.0521
   2753 H          14.7872    5.7645    5.4499 H     459  UNL459      0.0521
   2754 H          13.5522    3.9371    7.2436 H     459  UNL459      0.2090
   2755 O          13.9412    5.9110    9.2945 O.3   460  UNL460     -0.3982
   2756 C          12.5274    5.8900    9.3671 C.3   460  UNL460      0.0330
   2757 H          12.2096    5.1246   10.0795 H     460  UNL460      0.0521
   2758 H          12.1141    5.6767    8.3783 H     460  UNL460      0.0521
   2759 H          12.1743    6.8674    9.7041 H     460  UNL460      0.0521
   2760 H          14.2249    5.0312    8.9931 H     460  UNL460      0.2090
   2761 O          14.2775    7.1062   11.7427 O.3   461  UNL461     -0.3982
   2762 C          14.2223    6.1970   12.8265 C.3   461  UNL461      0.0330
   2763 H          15.1094    6.3207   13.4526 H     461  UNL461      0.0521
   2764 H          14.1733    5.1748   12.4435 H     461  UNL461      0.0521
   2765 H          13.3286    6.4048   13.4195 H     461  UNL461      0.0521
   2766 H          15.0803    6.8974   11.2351 H     461  UNL461      0.2090
   2767 O          15.8046    4.5416   15.4473 O.3   462  UNL462     -0.3982
   2768 C          14.5198    5.1286   15.5427 C.3   462  UNL462      0.0330
   2769 H          14.0787    4.8866   16.5128 H     462  UNL462      0.0521
   2770 H          13.8850    4.7510   14.7374 H     462  UNL462      0.0521
   2771 H          14.6167    6.2128   15.4492 H     462  UNL462      0.0521
   2772 H          15.6866    3.5803   15.5336 H     462  UNL462      0.2090
   2773 O          13.0633    6.9839   19.0517 O.3   463  UNL463     -0.3982
   2774 C          12.0680    6.1821   18.4425 C.3   463  UNL463      0.0330
   2775 H          11.4756    5.6856   19.2150 H     463  UNL463      0.0521
   2776 H          12.5424    5.4383   17.7978 H     463  UNL463      0.0521
   2777 H          11.4167    6.8204   17.8408 H     463  UNL463      0.0521
   2778 H          13.6254    6.3905   19.5784 H     463  UNL463      0.2090
   2779 O          13.0270    5.7007   21.6330 O.3   464  UNL464     -0.3982
   2780 C          12.0313    6.6700   21.9042 C.3   464  UNL464      0.0330
   2781 H          11.2529    6.2285   22.5314 H     464  UNL464      0.0521
   2782 H          11.6000    7.0233   20.9644 H     464  UNL464      0.0521
   2783 H          12.4881    7.5106   22.4317 H     464  UNL464      0.0521
   2784 H          12.5922    4.9677   21.1649 H     464  UNL464      0.2090
   2785 O          13.4158    6.4763   24.4222 O.3   465  UNL465     -0.3982
   2786 C          12.3169    6.5091   25.3143 C.3   465  UNL465      0.0330
   2787 H          12.5434    5.9036   26.1954 H     465  UNL465      0.0521
   2788 H          11.4270    6.1220   24.8120 H     465  UNL465      0.0521
   2789 H          12.1389    7.5425   25.6210 H     465  UNL465      0.0521
   2790 H          13.5495    5.5474   24.1677 H     465  UNL465      0.2090
   2791 O          13.8190    5.6966   28.7828 O.3   466  UNL466     -0.3982
   2792 C          14.3523    6.6217   27.8531 C.3   466  UNL466      0.0330
   2793 H          14.8824    6.0823   27.0642 H     466  UNL466      0.0521
   2794 H          15.0358    7.3024   28.3664 H     466  UNL466      0.0521
   2795 H          13.5333    7.1949   27.4126 H     466  UNL466      0.0521
   2796 H          14.5686    5.2030   29.1569 H     466  UNL466      0.2090
   2797 O          13.4367    6.4449   31.2862 O.3   467  UNL467     -0.3982
   2798 C          12.0576    6.4896   30.9690 C.3   467  UNL467      0.0330
   2799 H          11.4727    6.5488   31.8903 H     467  UNL467      0.0521
   2800 H          11.7828    5.5935   30.4073 H     467  UNL467      0.0521
   2801 H          11.8620    7.3740   30.3583 H     467  UNL467      0.0521
   2802 H          13.5797    5.6502   31.8280 H     467  UNL467      0.2090
   2803 O          14.5644    6.9870   36.0156 O.3   468  UNL468     -0.3982
   2804 C          14.2923    5.8963   35.1549 C.3   468  UNL468      0.0330
   2805 H          15.1261    5.7613   34.4615 H     468  UNL468      0.0521
   2806 H          13.3709    6.0898   34.6003 H     468  UNL468      0.0521
   2807 H          14.1704    4.9918   35.7553 H     468  UNL468      0.0521
   2808 H          14.6675    7.7747   35.4547 H     468  UNL468      0.2090
   2809 O          13.4875    9.4985   -1.7174 O.3   469  UNL469     -0.3982
   2810 C          12.3540    9.8074   -0.9272 C.3   469  UNL469      0.0330
   2811 H          12.2667    9.0821   -0.1144 H     469  UNL469      0.0521
   2812 H          11.4567    9.7822   -1.5503 H     469  UNL469      0.0521
   2813 H          12.4756   10.8088   -0.5077 H     469  UNL469      0.0521
   2814 H          13.3510    8.6051   -2.0759 H     469  UNL469      0.2090
   2815 O          13.8317    9.7714    2.3355 O.3   470  UNL470     -0.3982
   2816 C          14.5795    9.7133    1.1348 C.3   470  UNL470      0.0330
   2817 H          14.3292    8.7983    0.5923 H     470  UNL470      0.0521
   2818 H          15.6469    9.7309    1.3680 H     470  UNL470      0.0521
   2819 H          14.3293   10.5799    0.5182 H     470  UNL470      0.0521
   2820 H          14.0748    8.9904    2.8615 H     470  UNL470      0.2090
   2821 O          14.6431    8.1005    7.1828 O.3   471  UNL471     -0.3982
   2822 C          14.4614    8.7934    5.9616 C.3   471  UNL471      0.0330
   2823 H          13.4251    8.6865    5.6316 H     471  UNL471      0.0521
   2824 H          15.1392    8.3871    5.2068 H     471  UNL471      0.0521
   2825 H          14.6848    9.8515    6.1169 H     471  UNL471      0.0521
   2826 H          14.4379    7.1651    7.0138 H     471  UNL471      0.2090
   2827 O          13.5507    9.2303    9.3066 O.3   472  UNL472     -0.3982
   2828 C          12.6657    9.6909    8.3020 C.3   472  UNL472      0.0330
   2829 H          11.8305   10.2213    8.7662 H     472  UNL472      0.0521
   2830 H          12.2953    8.8409    7.7239 H     472  UNL472      0.0521
   2831 H          13.2042   10.3725    7.6394 H     472  UNL472      0.0521
   2832 H          13.0450    8.6281    9.8786 H     472  UNL472      0.2090
   2833 O          13.4270   10.1755   12.0013 O.3   473  UNL473     -0.3982
   2834 C          12.3786    9.3626   12.4959 C.3   473  UNL473      0.0330
   2835 H          11.6644    9.9815   13.0447 H     473  UNL473      0.0521
   2836 H          12.7917    8.5939   13.1536 H     473  UNL473      0.0521
   2837 H          11.8720    8.8849   11.6540 H     473  UNL473      0.0521
   2838 H          13.8577   10.5857   12.7705 H     473  UNL473      0.2090
   2839 O          13.3404    9.2578   15.1946 O.3   474  UNL474     -0.3982
   2840 C          12.0366    9.5094   15.6859 C.3   474  UNL474      0.0330
   2841 H          11.4216    9.9344   14.8888 H     474  UNL474      0.0521
   2842 H          12.0914   10.2037   16.5279 H     474  UNL474      0.0521
   2843 H          11.5953    8.5679   16.0210 H     474  UNL474      0.0521
   2844 H          13.7062   10.1109   14.9050 H     474  UNL474      0.2090
   2845 O          13.6320    9.1507   17.9862 O.3   475  UNL475     -0.3982
   2846 C          14.4378    9.8484   18.9181 C.3   475  UNL475      0.0330
   2847 H          15.2547   10.3488   18.3921 H     475  UNL475      0.0521
   2848 H          14.8393    9.1455   19.6521 H     475  UNL475      0.0521
   2849 H          13.8250   10.5948   19.4289 H     475  UNL475      0.0521
   2850 H          14.2027    8.4959   17.5490 H     475  UNL475      0.2090
   2851 O          15.0124   10.1153   21.6364 O.3   476  UNL476     -0.3982
   2852 C          13.8883    9.2904   21.8826 C.3   476  UNL476      0.0330
   2853 H          13.3579    9.1064   20.9450 H     476  UNL476      0.0521
   2854 H          13.2248    9.7815   22.5987 H     476  UNL476      0.0521
   2855 H          14.2296    8.3395   22.2984 H     476  UNL476      0.0521
   2856 H          14.6784   10.9510   21.2683 H     476  UNL476      0.2090
   2857 O          15.2171   10.1287   24.4697 O.3   477  UNL477     -0.3982
   2858 C          14.2418    9.3380   25.1240 C.3   477  UNL477      0.0330
   2859 H          13.6911    8.7513   24.3846 H     477  UNL477      0.0521
   2860 H          13.5558    9.9861   25.6749 H     477  UNL477      0.0521
   2861 H          14.7419    8.6630   25.8225 H     477  UNL477      0.0521
   2862 H          14.7438   10.7170   23.8570 H     477  UNL477      0.2090
   2863 O          12.7228   10.5997   28.2317 O.3   478  UNL478     -0.3982
   2864 C          12.3563    9.2385   28.1007 C.3   478  UNL478      0.0330
   2865 H          12.7296    8.8496   27.1500 H     478  UNL478      0.0521
   2866 H          11.2681    9.1477   28.1417 H     478  UNL478      0.0521
   2867 H          12.7983    8.6708   28.9228 H     478  UNL478      0.0521
   2868 H          12.3163   11.0778   27.4890 H     478  UNL478      0.2090
   2869 O          14.8511    9.7325   32.1314 O.3   479  UNL479     -0.3982
   2870 C          14.5256    9.4759   30.7776 C.3   479  UNL479      0.0330
   2871 H          14.2945   10.4171   30.2727 H     479  UNL479      0.0521
   2872 H          13.6655    8.8037   30.7299 H     479  UNL479      0.0521
   2873 H          15.3817    9.0039   30.2897 H     479  UNL479      0.0521
   2874 H          14.0731   10.1510   32.5378 H     479  UNL479      0.2090
   2875 O          14.2826    9.9820   35.2150 O.3   480  UNL480     -0.3982
   2876 C          12.9364    9.5681   35.0706 C.3   480  UNL480      0.0330
   2877 H          12.3379    9.9803   35.8868 H     480  UNL480      0.0521
   2878 H          12.8866    8.4766   35.0833 H     480  UNL480      0.0521
   2879 H          12.5515    9.9371   34.1171 H     480  UNL480      0.0521
   2880 H          14.5966    9.6401   36.0695 H     480  UNL480      0.2090
   2881 O          11.9466   13.0024   -2.1099 O.3   481  UNL481     -0.3982
   2882 C          13.1788   12.9894   -1.4128 C.3   481  UNL481      0.0330
   2883 H          13.8604   12.2800   -1.8888 H     481  UNL481      0.0521
   2884 H          13.0067   12.7036   -0.3722 H     481  UNL481      0.0521
   2885 H          13.6164   13.9899   -1.4459 H     481  UNL481      0.0521
   2886 H          11.5825   12.1020   -2.0633 H     481  UNL481      0.2090
   2887 O          11.2516   13.4407    2.6609 O.3   482  UNL482     -0.3982
   2888 C          12.3614   12.6306    3.0022 C.3   482  UNL482      0.0330
   2889 H          12.0192   11.7643    3.5739 H     482  UNL482      0.0521
   2890 H          13.0710   13.2139    3.5940 H     482  UNL482      0.0521
   2891 H          12.8481   12.2902    2.0853 H     482  UNL482      0.0521
   2892 H          10.8402   13.7276    3.4940 H     482  UNL482      0.2090
   2893 O          13.3202   12.1862    6.0470 O.3   483  UNL483     -0.3982
   2894 C          12.3164   13.1316    6.3680 C.3   483  UNL483      0.0330
   2895 H          11.4191   12.6098    6.7099 H     483  UNL483      0.0521
   2896 H          12.0866   13.7341    5.4859 H     483  UNL483      0.0521
   2897 H          12.6830   13.7822    7.1655 H     483  UNL483      0.0521
   2898 H          12.9662   11.6236    5.3372 H     483  UNL483      0.2090
   2899 O          13.7450   13.4206    9.0239 O.3   484  UNL484     -0.3982
   2900 C          12.5163   12.8459    9.4296 C.3   484  UNL484      0.0330
   2901 H          12.6884   12.1746   10.2746 H     484  UNL484      0.0521
   2902 H          12.0784   12.2934    8.5948 H     484  UNL484      0.0521
   2903 H          11.8343   13.6434    9.7336 H     484  UNL484      0.0521
   2904 H          14.3292   12.6894    8.7601 H     484  UNL484      0.2090
   2905 O          13.3928   13.4314   12.3521 O.3   485  UNL485     -0.3982
   2906 C          14.5869   12.6966   12.1550 C.3   485  UNL485      0.0330
   2907 H          14.8079   12.1116   13.0512 H     485  UNL485      0.0521
   2908 H          15.4089   13.3851   11.9444 H     485  UNL485      0.0521
   2909 H          14.4530   12.0220   11.3061 H     485  UNL485      0.0521
   2910 H          13.5419   14.0206   13.1110 H     485  UNL485      0.2090
   2911 O          14.2879   13.0831   14.9849 O.3   486  UNL486     -0.3982
   2912 C          12.9790   12.5440   15.0120 C.3   486  UNL486      0.0330
   2913 H          12.2489   13.3571   15.0093 H     486  UNL486      0.0521
   2914 H          12.8548   11.9314   15.9083 H     486  UNL486      0.0521
   2915 H          12.8323   11.9225   14.1255 H     486  UNL486      0.0521
   2916 H          14.3885   13.6292   15.7831 H     486  UNL486      0.2090
   2917 O          12.5287   13.8218   19.0650 O.3   487  UNL487     -0.3982
   2918 C          12.2330   12.5271   18.5741 C.3   487  UNL487      0.0330
   2919 H          11.3719   12.5787   17.9032 H     487  UNL487      0.0521
   2920 H          12.0163   11.8597   19.4118 H     487  UNL487      0.0521
   2921 H          13.0983   12.1493   18.0245 H     487  UNL487      0.0521
   2922 H          11.7432   14.1306   19.5477 H     487  UNL487      0.2090
   2923 O          13.6279   12.7547   21.2729 O.3   488  UNL488     -0.3982
   2924 C          12.4555   13.0251   22.0190 C.3   488  UNL488      0.0330
   2925 H          12.1987   12.1526   22.6249 H     488  UNL488      0.0521
   2926 H          11.6354   13.2627   21.3372 H     488  UNL488      0.0521
   2927 H          12.6406   13.8794   22.6744 H     488  UNL488      0.0521
   2928 H          13.4333   11.9926   20.7011 H     488  UNL488      0.2090
   2929 O          13.4476   12.8168   24.7828 O.3   489  UNL489     -0.3982
   2930 C          12.0709   12.9801   25.0699 C.3   489  UNL489      0.0330
   2931 H          11.6379   12.0149   25.3440 H     489  UNL489      0.0521
   2932 H          11.5603   13.3846   24.1926 H     489  UNL489      0.0521
   2933 H          11.9623   13.6761   25.9051 H     489  UNL489      0.0521
   2934 H          13.5124   12.1947   24.0383 H     489  UNL489      0.2090
   2935 O          14.6568   13.0104   27.0046 O.3   490  UNL490     -0.3982
   2936 C          14.2155   12.9764   28.3494 C.3   490  UNL490      0.0330
   2937 H          14.7004   12.1482   28.8722 H     490  UNL490      0.0521
   2938 H          13.1302   12.8518   28.3747 H     490  UNL490      0.0521
   2939 H          14.4833   13.9177   28.8351 H     490  UNL490      0.0521
   2940 H          14.4052   12.1628   26.5999 H     490  UNL490      0.2090
   2941 O          13.3302   12.4850   31.4741 O.3   491  UNL491     -0.3982
   2942 C          12.1742   13.1097   30.9471 C.3   491  UNL491      0.0330
   2943 H          11.4672   13.3114   31.7557 H     491  UNL491      0.0521
   2944 H          11.7143   12.4571   30.2010 H     491  UNL491      0.0521
   2945 H          12.4632   14.0518   30.4753 H     491  UNL491      0.0521
   2946 H          13.0424   11.6524   31.8859 H     491  UNL491      0.2090
   2947 O          13.6558   12.4957   34.0562 O.3   492  UNL492     -0.3982
   2948 C          12.3293   12.7606   34.4744 C.3   492  UNL492      0.0330
   2949 H          11.7564   13.1662   33.6368 H     492  UNL492      0.0521
   2950 H          12.3428   13.4756   35.3006 H     492  UNL492      0.0521
   2951 H          11.8696   11.8281   34.8099 H     492  UNL492      0.0521
   2952 H          14.0376   13.3411   33.7644 H     492  UNL492      0.2090
   2953 O          13.5307   16.5221    0.4505 O.3   493  UNL493     -0.3982
   2954 C          12.3352   16.1480   -0.2092 C.3   493  UNL493      0.0330
   2955 H          11.7708   15.4567    0.4215 H     493  UNL493      0.0521
   2956 H          12.5777   15.6727   -1.1628 H     493  UNL493      0.0521
   2957 H          11.7357   17.0427   -0.3927 H     493  UNL493      0.0521
   2958 H          14.0414   15.7082    0.5997 H     493  UNL493      0.2090
   2959 O          13.7520   16.5891    3.2697 O.3   494  UNL494     -0.3982
   2960 C          12.5254   15.9745    2.9200 C.3   494  UNL494      0.0330
   2961 H          12.0105   15.6450    3.8259 H     494  UNL494      0.0521
   2962 H          12.7182   15.1202    2.2665 H     494  UNL494      0.0521
   2963 H          11.9019   16.7004    2.3927 H     494  UNL494      0.0521
   2964 H          14.2835   15.9213    3.7356 H     494  UNL494      0.2090
   2965 O          14.7431   16.7059    6.3749 O.3   495  UNL495     -0.3982
   2966 C          13.5302   16.0630    6.0282 C.3   495  UNL495      0.0330
   2967 H          12.9888   15.7898    6.9374 H     495  UNL495      0.0521
   2968 H          13.7463   15.1695    5.4376 H     495  UNL495      0.0521
   2969 H          12.9207   16.7497    5.4362 H     495  UNL495      0.0521
   2970 H          15.2624   16.0726    6.8992 H     495  UNL495      0.2090
   2971 O          13.7643   16.4976    8.8573 O.3   496  UNL496     -0.3982
   2972 C          12.5274   16.0203    9.3541 C.3   496  UNL496      0.0330
   2973 H          12.7076   15.3402   10.1903 H     496  UNL496      0.0521
   2974 H          11.9898   15.5007    8.5572 H     496  UNL496      0.0521
   2975 H          11.9320   16.8688    9.6992 H     496  UNL496      0.0521
   2976 H          14.2704   15.7228    8.5587 H     496  UNL496      0.2090
   2977 O          13.5996   16.1643   12.1906 O.3   497  UNL497     -0.3982
   2978 C          12.2385   15.9176   12.4926 C.3   497  UNL497      0.0330
   2979 H          11.6449   16.8035   12.2536 H     497  UNL497      0.0521
   2980 H          12.1381   15.6737   13.5530 H     497  UNL497      0.0521
   2981 H          11.8886   15.0744   11.8924 H     497  UNL497      0.0521
   2982 H          13.8817   16.9170   12.7378 H     497  UNL497      0.2090
   2983 O          14.7562   15.9573   15.9655 O.3   498  UNL498     -0.3982
   2984 C          13.4242   16.2339   15.5735 C.3   498  UNL498      0.0330
   2985 H          12.8825   15.2952   15.4325 H     498  UNL498      0.0521
   2986 H          13.4288   16.8075   14.6434 H     498  UNL498      0.0521
   2987 H          12.9373   16.8188   16.3573 H     498  UNL498      0.0521
   2988 H          15.1624   15.4377   15.2509 H     498  UNL498      0.2090
   2989 O          13.4403   16.5229   18.5020 O.3   499  UNL499     -0.3982
   2990 C          12.0799   16.7816   18.7972 C.3   499  UNL499      0.0330
   2991 H          11.6745   15.9636   19.3980 H     499  UNL499      0.0521
   2992 H          11.5162   16.8782   17.8662 H     499  UNL499      0.0521
   2993 H          12.0100   17.7145   19.3614 H     499  UNL499      0.0521
   2994 H          13.4705   15.6898   18.0015 H     499  UNL499      0.2090
   2995 O          13.7334   15.3832   21.2281 O.3   500  UNL500     -0.3982
   2996 C          14.6208   16.0032   22.1406 C.3   500  UNL500      0.0330
   2997 H          14.0554   16.6433   22.8224 H     500  UNL500      0.0521
   2998 H          15.3544   16.5972   21.5902 H     500  UNL500      0.0521
   2999 H          15.1377   15.2303   22.7143 H     500  UNL500      0.0521
   3000 H          13.2897   16.0934   20.7339 H     500  UNL500      0.2090
   3001 O          15.5252   16.3265   25.0185 O.3   501  UNL501     -0.3982
   3002 C          14.1920   15.9277   25.2792 C.3   501  UNL501      0.0330
   3003 H          13.8334   15.2958   24.4628 H     501  UNL501      0.0521
   3004 H          13.5581   16.8126   25.3747 H     501  UNL501      0.0521
   3005 H          14.1667   15.3616   26.2132 H     501  UNL501      0.0521
   3006 H          15.5160   16.8263   24.1844 H     501  UNL501      0.2090
   3007 O          12.5469   15.0589   28.1997 O.3   502  UNL502     -0.3982
   3008 C          12.3389   16.4521   28.0568 C.3   502  UNL502      0.0330
   3009 H          11.3651   16.7207   28.4737 H     502  UNL502      0.0521
   3010 H          12.3808   16.7209   26.9985 H     502  UNL502      0.0521
   3011 H          13.1241   16.9858   28.5974 H     502  UNL502      0.0521
   3012 H          11.8356   14.6121   27.7099 H     502  UNL502      0.2090
   3013 O          14.5947   15.3429   31.9783 O.3   503  UNL503     -0.3982
   3014 C          14.2381   16.1650   30.8822 C.3   503  UNL503      0.0330
   3015 H          15.1170   16.7154   30.5373 H     503  UNL503      0.0521
   3016 H          13.4550   16.8628   31.1885 H     503  UNL503      0.0521
   3017 H          13.8647   15.5345   30.0719 H     503  UNL503      0.0521
   3018 H          14.9221   15.9299   32.6810 H     503  UNL503      0.2090
   3019 O          12.1518   15.9067   35.3037 O.3   504  UNL504     -0.3982
   3020 C          12.2478   16.0958   33.9039 C.3   504  UNL504      0.0330
   3021 H          12.4011   15.1307   33.4146 H     504  UNL504      0.0521
   3022 H          13.0823   16.7654   33.6822 H     504  UNL504      0.0521
   3023 H          11.3189   16.5423   33.5412 H     504  UNL504      0.0521
   3024 H          12.9897   15.5096   35.5965 H     504  UNL504      0.2090
   3025 O          13.2470   20.2029   -2.1050 O.3   505  UNL505     -0.3982
   3026 C          12.9444   19.0946   -1.2775 C.3   505  UNL505      0.0330
   3027 H          13.3113   19.2833   -0.2655 H     505  UNL505      0.0521
   3028 H          13.4135   18.1958   -1.6849 H     505  UNL505      0.0521
   3029 H          11.8609   18.9570   -1.2502 H     505  UNL505      0.0521
   3030 H          14.2145   20.3001   -2.1098 H     505  UNL505      0.2090
   3031 O          13.3350   19.8270    2.9976 O.3   506  UNL506     -0.3982
   3032 C          12.0145   19.3536    3.1893 C.3   506  UNL506      0.0330
   3033 H          12.0399   18.4206    3.7578 H     506  UNL506      0.0521
   3034 H          11.5413   19.1883    2.2183 H     506  UNL506      0.0521
   3035 H          11.4462   20.1019    3.7465 H     506  UNL506      0.0521
   3036 H          13.8146   19.1424    2.5008 H     506  UNL506      0.2090
   3037 O          14.6626   19.9464    6.8622 O.3   507  UNL507     -0.3982
   3038 C          13.8011   19.3267    5.9250 C.3   507  UNL507      0.0330
   3039 H          13.1499   18.6168    6.4410 H     507  UNL507      0.0521
   3040 H          14.3961   18.8086    5.1690 H     507  UNL507      0.0521
   3041 H          13.1906   20.0935    5.4424 H     507  UNL507      0.0521
   3042 H          15.1912   19.2417    7.2739 H     507  UNL507      0.2090
   3043 O          14.0237   19.1482    9.4372 O.3   508  UNL508     -0.3982
   3044 C          12.7012   19.4070    9.0031 C.3   508  UNL508      0.0330
   3045 H          12.0970   19.7397    9.8509 H     508  UNL508      0.0521
   3046 H          12.2741   18.4985    8.5717 H     508  UNL508      0.0521
   3047 H          12.7237   20.1925    8.2441 H     508  UNL508      0.0521
   3048 H          13.9718   18.4478   10.1097 H     508  UNL508      0.2090
   3049 O          13.2497   19.8651   11.9802 O.3   509  UNL509     -0.3982
   3050 C          12.1683   19.1167   12.5045 C.3   509  UNL509      0.0330
   3051 H          11.4851   19.7845   13.0351 H     509  UNL509      0.0521
   3052 H          12.5496   18.3520   13.1856 H     509  UNL509      0.0521
   3053 H          11.6368   18.6351   11.6804 H     509  UNL509      0.0521
   3054 H          13.7019   20.2804   12.7342 H     509  UNL509      0.2090
   3055 O          14.1478   19.2661   15.6166 O.3   510  UNL510     -0.3982
   3056 C          12.7725   19.4996   15.3750 C.3   510  UNL510      0.0330
   3057 H          12.2929   19.8423   16.2953 H     510  UNL510      0.0521
   3058 H          12.3010   18.5771   15.0275 H     510  UNL510      0.0521
   3059 H          12.6724   20.2693   14.6062 H     510  UNL510      0.0521
   3060 H          14.2048   18.5792   16.3025 H     510  UNL510      0.2090
   3061 O          14.6154   19.1258   18.8425 O.3   511  UNL511     -0.3982
   3062 C          13.3136   19.5588   18.4926 C.3   511  UNL511      0.0330
   3063 H          12.7498   19.7911   19.3995 H     511  UNL511      0.0521
   3064 H          12.8070   18.7730   17.9270 H     511  UNL511      0.0521
   3065 H          13.3919   20.4565   17.8749 H     511  UNL511      0.0521
   3066 H          14.5138   18.3285   19.3898 H     511  UNL511      0.2090
   3067 O          13.7417   18.9313   21.6441 O.3   512  UNL512     -0.3982
   3068 C          12.3443   19.0034   21.8599 C.3   512  UNL512      0.0330
   3069 H          12.0605   18.3051   22.6513 H     512  UNL512      0.0521
   3070 H          11.8186   18.7554   20.9347 H     512  UNL512      0.0521
   3071 H          12.0836   20.0200   22.1633 H     512  UNL512      0.0521
   3072 H          13.9427   18.0184   21.3763 H     512  UNL512      0.2090
   3073 O          13.4024   19.1448   24.2715 O.3   513  UNL513     -0.3982
   3074 C          12.1325   19.5035   24.7844 C.3   513  UNL513      0.0330
   3075 H          12.2591   20.0650   25.7134 H     513  UNL513      0.0521
   3076 H          11.5448   18.6009   24.9688 H     513  UNL513      0.0521
   3077 H          11.6166   20.1280   24.0512 H     513  UNL513      0.0521
   3078 H          13.8360   18.5915   24.9434 H     513  UNL513      0.2090
   3079 O          15.0616   18.9134   28.7254 O.3   514  UNL514     -0.3982
   3080 C          14.3139   19.5570   27.7099 C.3   514  UNL514      0.0330
   3081 H          13.5669   20.2117   28.1656 H     514  UNL514      0.0521
   3082 H          13.8235   18.8060   27.0858 H     514  UNL514      0.0521
   3083 H          14.9910   20.1536   27.0941 H     514  UNL514      0.0521
   3084 H          14.4345   18.3921   29.2551 H     514  UNL514      0.2090
   3085 O          13.3270   19.5104   31.8808 O.3   515  UNL515     -0.3982
   3086 C          12.3946   19.4601   30.8165 C.3   515  UNL515      0.0330
   3087 H          11.3796   19.4356   31.2209 H     515  UNL515      0.0521
   3088 H          12.5788   18.5690   30.2115 H     515  UNL515      0.0521
   3089 H          12.5158   20.3508   30.1956 H     515  UNL515      0.0521
   3090 H          13.1957   18.7078   32.4139 H     515  UNL515      0.2090
   3091 O          14.6312   19.8736   36.0733 O.3   516  UNL516     -0.3982
   3092 C          14.4279   19.0122   34.9682 C.3   516  UNL516      0.0330
   3093 H          15.2217   19.1672   34.2333 H     516  UNL516      0.0521
   3094 H          13.4541   19.2196   34.5178 H     516  UNL516      0.0521
   3095 H          14.4530   17.9766   35.3155 H     516  UNL516      0.0521
   3096 H          14.6036   20.7845   35.7343 H     516  UNL516      0.2090
   3097 O          13.8329   22.9063    0.2169 O.3   517  UNL517     -0.3982
   3098 C          12.4955   22.5180   -0.0380 C.3   517  UNL517      0.0330
   3099 H          12.3007   21.5498    0.4299 H     517  UNL517      0.0521
   3100 H          12.3335   22.4526   -1.1167 H     517  UNL517      0.0521
   3101 H          11.8215   23.2667    0.3847 H     517  UNL517      0.0521
   3102 H          14.4073   22.2234   -0.1696 H     517  UNL517      0.2090
   3103 O          13.4022   22.8798    2.9199 O.3   518  UNL518     -0.3982
   3104 C          12.0230   22.6846    3.1733 C.3   518  UNL518      0.0330
   3105 H          11.8973   21.9083    3.9322 H     518  UNL518      0.0521
   3106 H          11.5200   22.3904    2.2490 H     518  UNL518      0.0521
   3107 H          11.5928   23.6204    3.5377 H     518  UNL518      0.0521
   3108 H          13.7562   22.0333    2.5981 H     518  UNL518      0.2090
   3109 O          13.9358   22.5840    5.9210 O.3   519  UNL519     -0.3982
   3110 C          12.5896   22.8683    6.2549 C.3   519  UNL519      0.0330
   3111 H          12.1402   21.9956    6.7352 H     519  UNL519      0.0521
   3112 H          12.0350   23.1249    5.3490 H     519  UNL519      0.0521
   3113 H          12.5660   23.7143    6.9459 H     519  UNL519      0.0521
   3114 H          13.9248   21.8298    5.3074 H     519  UNL519      0.2090
   3115 O          13.5546   22.4777   10.2186 O.3   520  UNL520     -0.3982
   3116 C          13.0316   22.6854    8.9195 C.3   520  UNL520      0.0330
   3117 H          12.0946   22.1335    8.8103 H     520  UNL520      0.0521
   3118 H          13.7560   22.3452    8.1755 H     520  UNL520      0.0521
   3119 H          12.8421   23.7522    8.7791 H     520  UNL520      0.0521
   3120 H          13.7126   21.5229   10.3137 H     520  UNL520      0.2090
   3121 O          13.3122   22.8096   12.7139 O.3   521  UNL521     -0.3982
   3122 C          12.0170   22.3845   12.3315 C.3   521  UNL521      0.0330
   3123 H          11.4648   23.2286   11.9108 H     521  UNL521      0.0521
   3124 H          11.4902   21.9889   13.2032 H     521  UNL521      0.0521
   3125 H          12.1089   21.5997   11.5770 H     521  UNL521      0.0521
   3126 H          13.1984   23.5055   13.3835 H     521  UNL521      0.2090
   3127 O          14.4468   22.3849   15.1133 O.3   522  UNL522     -0.3982
   3128 C          13.2574   22.7963   15.7618 C.3   522  UNL522      0.0330
   3129 H          12.8770   21.9793   16.3799 H     522  UNL522      0.0521
   3130 H          12.5125   23.0788   15.0138 H     522  UNL522      0.0521
   3131 H          13.4783   23.6579   16.3962 H     522  UNL522      0.0521
   3132 H          14.2195   21.6197   14.5581 H     522  UNL522      0.2090
   3133 O          13.4039   22.8829   18.7837 O.3   523  UNL523     -0.3982
   3134 C          12.0097   22.6392   18.7471 C.3   523  UNL523      0.0330
   3135 H          11.8097   21.6132   19.0658 H     523  UNL523      0.0521
   3136 H          11.6381   22.7957   17.7315 H     523  UNL523      0.0521
   3137 H          11.5098   23.3334   19.4266 H     523  UNL523      0.0521
   3138 H          13.8203   22.2525   18.1715 H     523  UNL523      0.2090
   3139 O          14.4045   22.0373   21.7607 O.3   524  UNL524     -0.3982
   3140 C          13.2514   22.8392   21.9392 C.3   524  UNL524      0.0330
   3141 H          12.3763   22.1973   22.0675 H     524  UNL524      0.0521
   3142 H          13.1178   23.4857   21.0684 H     524  UNL524      0.0521
   3143 H          13.3822   23.4559   22.8315 H     524  UNL524      0.0521
   3144 H          14.2592   21.5017   20.9622 H     524  UNL524      0.2090
   3145 O          13.4676   22.0050   24.8056 O.3   525  UNL525     -0.3982
   3146 C          12.2443   22.6022   25.1945 C.3   525  UNL525      0.0330
   3147 H          11.5281   21.8232   25.4678 H     525  UNL525      0.0521
   3148 H          11.8510   23.2002   24.3689 H     525  UNL525      0.0521
   3149 H          12.4229   23.2487   26.0569 H     525  UNL525      0.0521
   3150 H          13.2776   21.4377   24.0390 H     525  UNL525      0.2090
   3151 O          15.2789   22.2266   28.5323 O.3   526  UNL526     -0.3982
   3152 C          14.1435   22.7700   27.8843 C.3   526  UNL526      0.0330
   3153 H          13.5724   21.9664   27.4129 H     526  UNL526      0.0521
   3154 H          14.4643   23.4938   27.1311 H     526  UNL526      0.0521
   3155 H          13.5177   23.2723   28.6257 H     526  UNL526      0.0521
   3156 H          15.8147   21.7878   27.8497 H     526  UNL526      0.2090
   3157 O          14.1377   22.4374   31.0168 O.3   527  UNL527     -0.3982
   3158 C          12.7890   22.7973   31.2533 C.3   527  UNL527      0.0330
   3159 H          12.2994   22.0150   31.8385 H     527  UNL527      0.0521
   3160 H          12.2736   22.9297   30.2988 H     527  UNL527      0.0521
   3161 H          12.7644   23.7362   31.8114 H     527  UNL527      0.0521
   3162 H          14.1275   21.6014   30.5203 H     527  UNL527      0.2090
   3163 O          12.6332   22.7251   35.8856 O.3   528  UNL528     -0.3982
   3164 C          12.2232   22.7332   34.5305 C.3   528  UNL528      0.0330
   3165 H          11.4471   21.9788   34.3791 H     528  UNL528      0.0521
   3166 H          13.0815   22.5224   33.8880 H     528  UNL528      0.0521
   3167 H          11.8219   23.7196   34.2867 H     528  UNL528      0.0521
   3168 H          12.9845   21.8378   36.0725 H     528  UNL528      0.2090
   3169 O          14.1016   26.6394   -1.9334 O.3   529  UNL529     -0.3982
   3170 C          14.4416   25.5823   -1.0550 C.3   529  UNL529      0.0330
   3171 H          13.6770   25.4916   -0.2795 H     529  UNL529      0.0521
   3172 H          15.4147   25.7839   -0.6006 H     529  UNL529      0.0521
   3173 H          14.4933   24.6508   -1.6234 H     529  UNL529      0.0521
   3174 H          14.0632   27.4521   -1.4010 H     529  UNL529      0.2090
   3175 O          14.8403   27.6918    2.1209 O.3   530  UNL530     -0.3982
   3176 C          14.6530   27.1695    3.4234 C.3   530  UNL530      0.0330
   3177 H          14.5866   26.0798    3.3739 H     530  UNL530      0.0521
   3178 H          13.7373   27.5818    3.8540 H     530  UNL530      0.0521
   3179 H          15.5052   27.4525    4.0457 H     530  UNL530      0.0521
   3180 H          14.0691   27.4248    1.5923 H     530  UNL530      0.2090
   3181 O          15.3812   25.5529    5.8160 O.3   531  UNL531     -0.3982
   3182 C          14.0025   25.8097    6.0101 C.3   531  UNL531      0.0330
   3183 H          13.8186   26.8851    5.9454 H     531  UNL531      0.0521
   3184 H          13.6956   25.4351    6.9896 H     531  UNL531      0.0521
   3185 H          13.4326   25.2974    5.2315 H     531  UNL531      0.0521
   3186 H          15.8609   26.0200    6.5211 H     531  UNL531      0.2090
   3187 O          14.6589   27.9469    8.3635 O.3   532  UNL532     -0.3982
   3188 C          14.2501   27.3993    9.6034 C.3   532  UNL532      0.0330
   3189 H          15.0453   27.5318   10.3412 H     532  UNL532      0.0521
   3190 H          14.0281   26.3368    9.4780 H     532  UNL532      0.0521
   3191 H          13.3512   27.9195    9.9425 H     532  UNL532      0.0521
   3192 H          15.4578   27.4658    8.0882 H     532  UNL532      0.2090
   3193 O          15.0020   25.3213   11.5242 O.3   533  UNL533     -0.3982
   3194 C          14.4813   26.0553   12.6172 C.3   533  UNL533      0.0330
   3195 H          13.9787   25.3741   13.3084 H     533  UNL533      0.0521
   3196 H          13.7762   26.8053   12.2507 H     533  UNL533      0.0521
   3197 H          15.3042   26.5541   13.1345 H     533  UNL533      0.0521
   3198 H          14.2491   24.8902   11.0850 H     533  UNL533      0.2090
   3199 O          15.3525   25.3406   15.1452 O.3   534  UNL534     -0.3982
   3200 C          14.2365   26.1254   15.5236 C.3   534  UNL534      0.0330
   3201 H          14.3246   26.4017   16.5772 H     534  UNL534      0.0521
   3202 H          13.3179   25.5566   15.3606 H     534  UNL534      0.0521
   3203 H          14.2152   27.0307   14.9123 H     534  UNL534      0.0521
   3204 H          15.3449   24.5450   15.7042 H     534  UNL534      0.2090
   3205 O          14.0513   27.1163   18.6157 O.3   535  UNL535     -0.3982
   3206 C          12.6519   26.9477   18.4821 C.3   535  UNL535      0.0330
   3207 H          12.2719   27.6358   17.7229 H     535  UNL535      0.0521
   3208 H          12.1673   27.1433   19.4417 H     535  UNL535      0.0521
   3209 H          12.4457   25.9198   18.1751 H     535  UNL535      0.0521
   3210 H          14.2034   28.0371   18.8888 H     535  UNL535      0.2090
   3211 O          15.1901   25.3515   20.5558 O.3   536  UNL536     -0.3982
   3212 C          14.3916   25.9704   21.5476 C.3   536  UNL536      0.0330
   3213 H          14.0607   25.2206   22.2705 H     536  UNL536      0.0521
   3214 H          13.5270   26.4447   21.0770 H     536  UNL536      0.0521
   3215 H          14.9868   26.7297   22.0602 H     536  UNL536      0.0521
   3216 H          14.6354   24.6832   20.1184 H     536  UNL536      0.2090
   3217 O          15.4646   26.1487   25.1810 O.3   537  UNL537     -0.3982
   3218 C          14.1636   25.8977   24.6822 C.3   537  UNL537      0.0330
   3219 H          13.4475   25.9089   25.5076 H     537  UNL537      0.0521
   3220 H          14.1450   24.9260   24.1828 H     537  UNL537      0.0521
   3221 H          13.9014   26.6787   23.9646 H     537  UNL537      0.0521
   3222 H          15.6693   25.4400   25.8146 H     537  UNL537      0.2090
   3223 O          15.4324   25.6440   28.0999 O.3   538  UNL538     -0.3982
   3224 C          14.0954   26.0479   27.8682 C.3   538  UNL538      0.0330
   3225 H          13.6084   26.2636   28.8224 H     538  UNL538      0.0521
   3226 H          13.5592   25.2526   27.3448 H     538  UNL538      0.0521
   3227 H          14.0985   26.9495   27.2512 H     538  UNL538      0.0521
   3228 H          15.3976   24.8425   28.6494 H     538  UNL538      0.2090
   3229 O          15.3238   28.0551   30.7049 O.3   539  UNL539     -0.3982
   3230 C          14.2750   27.6004   31.5403 C.3   539  UNL539      0.0330
   3231 H          14.2866   26.5084   31.5796 H     539  UNL539      0.0521
   3232 H          13.3174   27.9514   31.1481 H     539  UNL539      0.0521
   3233 H          14.4230   28.0006   32.5461 H     539  UNL539      0.0521
   3234 H          15.1655   27.6842   29.8201 H     539  UNL539      0.2090
   3235 O          13.4146   26.0491   35.4225 O.3   540  UNL540     -0.3982
   3236 C          14.7865   25.9423   35.0896 C.3   540  UNL540      0.0330
   3237 H          14.9457   25.0505   34.4783 H     540  UNL540      0.0521
   3238 H          15.3806   25.8806   36.0046 H     540  UNL540      0.0521
   3239 H          15.0847   26.8276   34.5232 H     540  UNL540      0.0521
   3240 H          13.1793   25.2500   35.9241 H     540  UNL540      0.2090
   3241 O          17.8276   -1.8334   -1.6668 O.3   541  UNL541     -0.3982
   3242 C          16.7349   -1.2308   -0.9979 C.3   541  UNL541      0.0330
   3243 H          16.3719   -0.3819   -1.5826 H     541  UNL541      0.0521
   3244 H          17.0528   -0.8957   -0.0076 H     541  UNL541      0.0521
   3245 H          15.9341   -1.9663   -0.8915 H     541  UNL541      0.0521
   3246 H          18.5219   -1.1573   -1.7465 H     541  UNL541      0.2090
   3247 O          16.3652   -0.3724    3.4062 O.3   542  UNL542     -0.3982
   3248 C          17.7061   -0.2721    2.9628 C.3   542  UNL542      0.0330
   3249 H          18.2930    0.2850    3.6973 H     542  UNL542      0.0521
   3250 H          17.7340    0.2371    1.9964 H     542  UNL542      0.0521
   3251 H          18.1207   -1.2771    2.8548 H     542  UNL542      0.0521
   3252 H          16.0243    0.5341    3.4928 H     542  UNL542      0.2090
   3253 O          17.1672   -1.6721    5.7631 O.3   543  UNL543     -0.3982
   3254 C          18.4127   -1.1047    6.1257 C.3   543  UNL543      0.0330
   3255 H          18.9486   -1.7914    6.7857 H     543  UNL543      0.0521
   3256 H          18.2459   -0.1511    6.6323 H     543  UNL543      0.0521
   3257 H          19.0029   -0.9363    5.2219 H     543  UNL543      0.0521
   3258 H          16.6660   -1.8100    6.5849 H     543  UNL543      0.2090
   3259 O          17.5449   -1.1000    8.9772 O.3   544  UNL544     -0.3982
   3260 C          16.1476   -1.1000    9.2056 C.3   544  UNL544      0.0330
   3261 H          15.8976   -1.8690    9.9407 H     544  UNL544      0.0521
   3262 H          15.6241   -1.2947    8.2664 H     544  UNL544      0.0521
   3263 H          15.8504   -0.1214    9.5897 H     544  UNL544      0.0521
   3264 H          17.7788   -1.9804    8.6370 H     544  UNL544      0.2090
   3265 O          15.3626    0.1899   11.8286 O.3   545  UNL545     -0.3982
   3266 C          16.5974   -0.3243   12.2926 C.3   545  UNL545      0.0330
   3267 H          16.4163   -1.0303   13.1069 H     545  UNL545      0.0521
   3268 H          17.2271    0.4976   12.6419 H     545  UNL545      0.0521
   3269 H          17.0987   -0.8404   11.4705 H     545  UNL545      0.0521
   3270 H          14.9412    0.6420   12.5794 H     545  UNL545      0.2090
   3271 O          19.1369   -1.6384   15.4469 O.3   546  UNL546     -0.3982
   3272 C          17.8186   -1.1687   15.2322 C.3   546  UNL546      0.0330
   3273 H          17.8388   -0.3326   14.5288 H     546  UNL546      0.0521
   3274 H          17.3856   -0.8485   16.1830 H     546  UNL546      0.0521
   3275 H          17.2164   -1.9790   14.8146 H     546  UNL546      0.0521
   3276 H          19.6471   -0.8982   15.8175 H     546  UNL546      0.2090
   3277 O          17.5889    0.1067   18.8283 O.3   547  UNL547     -0.3982
   3278 C          16.2118   -0.2064   18.7273 C.3   547  UNL547      0.0330
   3279 H          16.0449   -1.2326   19.0642 H     547  UNL547      0.0521
   3280 H          15.8871   -0.0948   17.6899 H     547  UNL547      0.0521
   3281 H          15.6441    0.4795   19.3603 H     547  UNL547      0.0521
   3282 H          18.0666   -0.5179   18.2563 H     547  UNL547      0.2090
   3283 O          17.5648   -1.9802   21.2986 O.3   548  UNL548     -0.3982
   3284 C          18.5899   -1.1774   21.8546 C.3   548  UNL548      0.0330
   3285 H          18.1616   -0.5026   22.6000 H     548  UNL548      0.0521
   3286 H          19.0737   -0.6019   21.0617 H     548  UNL548      0.0521
   3287 H          19.3278   -1.8250   22.3339 H     548  UNL548      0.0521
   3288 H          16.9255   -1.3784   20.8808 H     548  UNL548      0.2090
   3289 O          19.2170   -0.9700   24.7460 O.3   549  UNL549     -0.3982
   3290 C          17.8349   -1.1420   25.0003 C.3   549  UNL549      0.0330
   3291 H          17.6943   -1.9475   25.7255 H     549  UNL549      0.0521
   3292 H          17.3191   -1.3830   24.0676 H     549  UNL549      0.0521
   3293 H          17.4303   -0.2128   25.4082 H     549  UNL549      0.0521
   3294 H          19.5478   -1.8102   24.3851 H     549  UNL549      0.2090
   3295 O          16.4488   -1.9489   28.0264 O.3   550  UNL550     -0.3982
   3296 C          17.6327   -1.1726   28.0432 C.3   550  UNL550      0.0330
   3297 H          17.8925   -0.9251   29.0755 H     550  UNL550      0.0521
   3298 H          17.4779   -0.2579   27.4659 H     550  UNL550      0.0521
   3299 H          18.4435   -1.7513   27.5945 H     550  UNL550      0.0521
   3300 H          15.7478   -1.4097   28.4305 H     550  UNL550      0.2090
   3301 O          15.9187   -1.2260   31.0165 O.3   551  UNL551     -0.3982
   3302 C          16.0404    0.1670   31.2381 C.3   551  UNL551      0.0330
   3303 H          15.2343    0.5043   31.8944 H     551  UNL551      0.0521
   3304 H          15.9914    0.6945   30.2824 H     551  UNL551      0.0521
   3305 H          17.0030    0.3684   31.7139 H     551  UNL551      0.0521
   3306 H          15.0556   -1.3737   30.5937 H     551  UNL551      0.2090
   3307 O          16.2960   -1.0183   33.8206 O.3   552  UNL552     -0.3982
   3308 C          17.5996   -1.1161   34.3643 C.3   552  UNL552      0.0330
   3309 H          18.2290   -1.7124   33.6990 H     552  UNL552      0.0521
   3310 H          17.5496   -1.5826   35.3511 H     552  UNL552      0.0521
   3311 H          18.0213   -0.1127   34.4589 H     552  UNL552      0.0521
   3312 H          15.9478   -1.9233   33.7485 H     552  UNL552      0.2090
   3313 O          18.1616    1.9820   -0.0520 O.3   553  UNL553     -0.3982
   3314 C          16.7587    1.9737   -0.2429 C.3   553  UNL553      0.0330
   3315 H          16.3453    2.9437    0.0442 H     553  UNL553      0.0521
   3316 H          16.3124    1.1815    0.3631 H     553  UNL553      0.0521
   3317 H          16.5448    1.7868   -1.2978 H     553  UNL553      0.0521
   3318 H          18.3204    2.1500    0.8925 H     553  UNL553      0.2090
   3319 O          16.4118    3.1486    4.0459 O.3   554  UNL554     -0.3982
   3320 C          16.5118    3.0898    2.6348 C.3   554  UNL554      0.0330
   3321 H          15.5664    3.4075    2.1880 H     554  UNL554      0.0521
   3322 H          16.7470    2.0678    2.3276 H     554  UNL554      0.0521
   3323 H          17.3104    3.7593    2.3070 H     554  UNL554      0.0521
   3324 H          15.6957    2.5447    4.3069 H     554  UNL554      0.2090
   3325 O          17.0762    2.2392    6.5180 O.3   555  UNL555     -0.3982
   3326 C          18.3264    2.3624    5.8651 C.3   555  UNL555      0.0330
   3327 H          18.4846    1.4997    5.2130 H     555  UNL555      0.0521
   3328 H          19.1235    2.4203    6.6103 H     555  UNL555      0.0521
   3329 H          18.3252    3.2750    5.2644 H     555  UNL555      0.0521
   3330 H          17.1073    1.4211    7.0427 H     555  UNL555      0.2090
   3331 O          17.6422    2.9620    9.1012 O.3   556  UNL556     -0.3982
   3332 C          16.2320    3.0659    9.1724 C.3   556  UNL556      0.0330
   3333 H          15.9585    3.8300    9.9042 H     556  UNL556      0.0521
   3334 H          15.8089    2.1009    9.4619 H     556  UNL556      0.0521
   3335 H          15.8467    3.3503    8.1905 H     556  UNL556      0.0521
   3336 H          17.9550    2.7085    9.9864 H     556  UNL556      0.2090
   3337 O          16.3033    2.6239   13.3963 O.3   557  UNL557     -0.3982
   3338 C          16.1627    3.0878   12.0661 C.3   557  UNL557      0.0330
   3339 H          17.1511    3.2211   11.6193 H     557  UNL557      0.0521
   3340 H          15.6200    4.0362   12.0655 H     557  UNL557      0.0521
   3341 H          15.6012    2.3489   11.4896 H     557  UNL557      0.0521
   3342 H          16.8050    3.2998   13.8831 H     557  UNL557      0.2090
   3343 O          19.5255    2.4755   15.4034 O.3   558  UNL558     -0.3982
   3344 C          18.2266    2.0416   15.7627 C.3   558  UNL558      0.0330
   3345 H          18.2977    1.2950   16.5576 H     558  UNL558      0.0521
   3346 H          17.7301    1.6128   14.8888 H     558  UNL558      0.0521
   3347 H          17.6522    2.8989   16.1213 H     558  UNL558      0.0521
   3348 H          20.0112    1.6938   15.0893 H     558  UNL558      0.2090
   3349 O          18.2447    3.2176   18.8086 O.3   559  UNL559     -0.3982
   3350 C          16.8309    3.2211   18.7334 C.3   559  UNL559      0.0330
   3351 H          16.4443    2.2591   19.0788 H     559  UNL559      0.0521
   3352 H          16.5206    3.4012   17.7012 H     559  UNL559      0.0521
   3353 H          16.4431    4.0179   19.3724 H     559  UNL559      0.0521
   3354 H          18.5597    2.5009   18.2319 H     559  UNL559      0.2090
   3355 O          19.1268    3.0780   21.6910 O.3   560  UNL560     -0.3982
   3356 C          18.1122    2.1057   21.5188 C.3   560  UNL560      0.0330
   3357 H          17.1755    2.5993   21.2478 H     560  UNL560      0.0521
   3358 H          17.9846    1.5428   22.4466 H     560  UNL560      0.0521
   3359 H          18.4065    1.4229   20.7184 H     560  UNL560      0.0521
   3360 H          18.8377    3.6690   22.4070 H     560  UNL560      0.2090
   3361 O          17.2662    3.4122   24.0906 O.3   561  UNL561     -0.3982
   3362 C          18.4025    3.0412   24.8493 C.3   561  UNL561      0.0330
   3363 H          18.0892    2.4393   25.7059 H     561  UNL561      0.0521
   3364 H          18.9220    3.9394   25.1921 H     561  UNL561      0.0521
   3365 H          19.0738    2.4529   24.2193 H     561  UNL561      0.0521
   3366 H          16.6896    3.9327   24.6755 H     561  UNL561      0.2090
   3367 O          16.4587    2.0580   28.1458 O.3   562  UNL562     -0.3982
   3368 C          16.4107    3.4466   27.8737 C.3   562  UNL562      0.0330
   3369 H          15.7006    3.9273   28.5513 H     562  UNL562      0.0521
   3370 H          16.1054    3.6052   26.8366 H     562  UNL562      0.0521
   3371 H          17.4044    3.8735   28.0280 H     562  UNL562      0.0521
   3372 H          15.5635    1.7072   28.0004 H     562  UNL562      0.2090
   3373 O          18.0277    2.4239   30.3744 O.3   563  UNL563     -0.3982
   3374 C          18.0407    3.1497   31.5900 C.3   563  UNL563      0.0330
   3375 H          17.2957    3.9481   31.5467 H     563  UNL563      0.0521
   3376 H          19.0350    3.5730   31.7520 H     563  UNL563      0.0521
   3377 H          17.7975    2.4716   32.4113 H     563  UNL563      0.0521
   3378 H          18.2468    3.0514   29.6647 H     563  UNL563      0.2090
   3379 O          17.4442    1.9630   35.1547 O.3   564  UNL564     -0.3982
   3380 C          16.0318    1.8747   35.1989 C.3   564  UNL564      0.0330
   3381 H          15.6247    2.7686   35.6779 H     564  UNL564      0.0521
   3382 H          15.7390    0.9830   35.7585 H     564  UNL564      0.0521
   3383 H          15.6482    1.8040   34.1784 H     564  UNL564      0.0521
   3384 H          17.7555    2.0244   36.0739 H     564  UNL564      0.2090
   3385 O          17.3291    6.5800   -1.0176 O.3   565  UNL565     -0.3982
   3386 C          15.9217    6.4344   -1.0670 C.3   565  UNL565      0.0330
   3387 H          15.6428    5.4485   -0.6870 H     565  UNL565      0.0521
   3388 H          15.5786    6.5496   -2.0981 H     565  UNL565      0.0521
   3389 H          15.4626    7.2058   -0.4443 H     565  UNL565      0.0521
   3390 H          17.7084    5.8826   -1.5790 H     565  UNL565      0.2090
   3391 O          18.2102    6.0921    2.1760 O.3   566  UNL566     -0.3982
   3392 C          16.8513    6.4817    2.0968 C.3   566  UNL566      0.0330
   3393 H          16.2416    5.6232    1.8043 H     566  UNL566      0.0521
   3394 H          16.7438    7.2850    1.3640 H     566  UNL566      0.0521
   3395 H          16.5267    6.8395    3.0767 H     566  UNL566      0.0521
   3396 H          18.4697    5.7795    1.2925 H     566  UNL566      0.2090
   3397 O          19.1419    6.4939    5.1604 O.3   567  UNL567     -0.3982
   3398 C          17.9099    5.8237    5.3536 C.3   567  UNL567      0.0330
   3399 H          17.9919    5.1476    6.2083 H     567  UNL567      0.0521
   3400 H          17.6555    5.2600    4.4527 H     567  UNL567      0.0521
   3401 H          17.1302    6.5632    5.5504 H     567  UNL567      0.0521
   3402 H          19.8139    5.8125    4.9880 H     567  UNL567      0.2090
   3403 O          17.3495    6.3127    8.1510 O.3   568  UNL568     -0.3982
   3404 C          17.1519    6.4752    9.5435 C.3   568  UNL568      0.0330
   3405 H          17.1758    5.4981   10.0324 H     568  UNL568      0.0521
   3406 H          16.1891    6.9602    9.7216 H     568  UNL568      0.0521
   3407 H          17.9524    7.1009    9.9453 H     568  UNL568      0.0521
   3408 H          16.6246    5.7537    7.8229 H     568  UNL568      0.2090
   3409 O          17.0957    5.5898   12.5190 O.3   569  UNL569     -0.3982
   3410 C          17.9747    6.6963   12.4313 C.3   569  UNL569      0.0330
   3411 H          18.8485    6.4223   11.8347 H     569  UNL569      0.0521
   3412 H          18.2851    6.9965   13.4350 H     569  UNL569      0.0521
   3413 H          17.4534    7.5269   11.9498 H     569  UNL569      0.0521
   3414 H          17.5858    4.8691   12.9501 H     569  UNL569      0.2090
   3415 O          18.0863    5.1624   16.6922 O.3   570  UNL570     -0.3982
   3416 C          18.1751    5.5303   15.3280 C.3   570  UNL570      0.0330
   3417 H          18.0507    4.6435   14.7016 H     570  UNL570      0.0521
   3418 H          19.1472    5.9912   15.1366 H     570  UNL570      0.0521
   3419 H          17.3831    6.2479   15.1012 H     570  UNL570      0.0521
   3420 H          18.8009    4.5256   16.8635 H     570  UNL570      0.2090
   3421 O          17.1817    6.4424   19.1467 O.3   571  UNL571     -0.3982
   3422 C          15.9476    6.4967   18.4551 C.3   571  UNL571      0.0330
   3423 H          15.3345    5.6360   18.7336 H     571  UNL571      0.0521
   3424 H          16.1320    6.4930   17.3781 H     571  UNL571      0.0521
   3425 H          15.4264    7.4168   18.7300 H     571  UNL571      0.0521
   3426 H          17.6210    5.6160   18.8828 H     571  UNL571      0.2090
   3427 O          17.1201    5.9526   21.7511 O.3   572  UNL572     -0.3982
   3428 C          15.8249    6.5243   21.7455 C.3   572  UNL572      0.0330
   3429 H          15.3433    6.3474   22.7104 H     572  UNL572      0.0521
   3430 H          15.2322    6.0780   20.9432 H     572  UNL572      0.0521
   3431 H          15.9121    7.6000   21.5760 H     572  UNL572      0.0521
   3432 H          17.0107    4.9985   21.9034 H     572  UNL572      0.2090
   3433 O          17.4891    6.3659   24.3008 O.3   573  UNL573     -0.3982
   3434 C          16.2348    6.4903   24.9456 C.3   573  UNL573      0.0330
   3435 H          16.3878    6.7654   25.9922 H     573  UNL573      0.0521
   3436 H          15.6960    5.5418   24.8822 H     573  UNL573      0.0521
   3437 H          15.6548    7.2704   24.4471 H     573  UNL573      0.0521
   3438 H          17.9809    5.6671   24.7648 H     573  UNL573      0.2090
   3439 O          18.5153    6.0840   27.1479 O.3   574  UNL574     -0.3982
   3440 C          18.0048    6.2531   28.4576 C.3   574  UNL574      0.0330
   3441 H          16.9210    6.3865   28.4128 H     574  UNL574      0.0521
   3442 H          18.4712    7.1255   28.9216 H     574  UNL574      0.0521
   3443 H          18.2360    5.3626   29.0468 H     574  UNL574      0.0521
   3444 H          18.2950    6.8892   26.6493 H     574  UNL574      0.2090
   3445 O          17.5464    6.5273   31.1664 O.3   575  UNL575     -0.3982
   3446 C          16.1488    6.4297   30.9626 C.3   575  UNL575      0.0330
   3447 H          15.6252    6.7179   31.8775 H     575  UNL575      0.0521
   3448 H          15.8902    5.4037   30.6899 H     575  UNL575      0.0521
   3449 H          15.8600    7.1035   30.1525 H     575  UNL575      0.0521
   3450 H          17.7728    5.9188   31.8903 H     575  UNL575      0.2090
   3451 O          18.7909    4.8160   34.2392 O.3   576  UNL576     -0.3982
   3452 C          17.8845    4.7919   35.3265 C.3   576  UNL576      0.0330
   3453 H          18.2280    4.0709   36.0725 H     576  UNL576      0.0521
   3454 H          16.8904    4.5149   34.9672 H     576  UNL576      0.0521
   3455 H          17.8428    5.7866   35.7765 H     576  UNL576      0.0521
   3456 H          18.8067    3.9206   33.8604 H     576  UNL576      0.2090
   3457 O          18.9039   10.0958   -0.2482 O.3   577  UNL577     -0.3982
   3458 C          18.0924    9.8608   -1.3843 C.3   577  UNL577      0.0330
   3459 H          17.8239   10.8147   -1.8450 H     577  UNL577      0.0521
   3460 H          17.1902    9.3225   -1.0836 H     577  UNL577      0.0521
   3461 H          18.6522    9.2568   -2.1021 H     577  UNL577      0.0521
   3462 H          18.3807   10.6336    0.3703 H     577  UNL577      0.2090
   3463 O          18.6110   10.5302    3.2582 O.3   578  UNL578     -0.3982
   3464 C          17.9361    9.3302    2.9280 C.3   578  UNL578      0.0330
   3465 H          17.6513    9.3496    1.8731 H     578  UNL578      0.0521
   3466 H          17.0469    9.2271    3.5547 H     578  UNL578      0.0521
   3467 H          18.6053    8.4854    3.1071 H     578  UNL578      0.0521
   3468 H          17.9928   11.2615    3.0892 H     578  UNL578      0.2090
   3469 O          18.3791   10.5480    6.6177 O.3   579  UNL579     -0.3982
   3470 C          18.0730    9.2270    6.2107 C.3   579  UNL579      0.0330
   3471 H          18.5166    9.0346    5.2306 H     579  UNL579      0.0521
   3472 H          16.9885    9.1017    6.1626 H     579  UNL579      0.0521
   3473 H          18.4865    8.5258    6.9394 H     579  UNL579      0.0521
   3474 H          17.9996   11.1471    5.9524 H     579  UNL579      0.2090
   3475 O          17.8280    9.5704    9.4204 O.3   580  UNL580     -0.3982
   3476 C          16.5071    9.5542    8.9110 C.3   580  UNL580      0.0330
   3477 H          16.2165    8.5260    8.6818 H     580  UNL580      0.0521
   3478 H          16.4561   10.1683    8.0086 H     580  UNL580      0.0521
   3479 H          15.8304    9.9623    9.6654 H     580  UNL580      0.0521
   3480 H          18.4052    9.2029    8.7294 H     580  UNL580      0.2090
   3481 O          17.3124    9.5452   12.8399 O.3   581  UNL581     -0.3982
   3482 C          16.0083    9.4703   12.2938 C.3   581  UNL581      0.0330
   3483 H          15.7350   10.4383   11.8666 H     581  UNL581      0.0521
   3484 H          15.2995    9.1928   13.0778 H     581  UNL581      0.0521
   3485 H          15.9951    8.7110   11.5084 H     581  UNL581      0.0521
   3486 H          17.2930   10.2264   13.5335 H     581  UNL581      0.2090
   3487 O          17.5348    9.3639   15.4772 O.3   582  UNL582     -0.3982
   3488 C          16.1244    9.4879   15.4762 C.3   582  UNL582      0.0330
   3489 H          15.8331   10.3404   14.8577 H     582  UNL582      0.0521
   3490 H          15.7695    9.6287   16.5000 H     582  UNL582      0.0521
   3491 H          15.6878    8.5752   15.0638 H     582  UNL582      0.0521
   3492 H          17.8937   10.1880   15.8482 H     582  UNL582      0.2090
   3493 O          17.8438    8.8523   18.4579 O.3   583  UNL583     -0.3982
   3494 C          17.9934   10.2063   18.8439 C.3   583  UNL583      0.0330
   3495 H          17.8501   10.8521   17.9740 H     583  UNL583      0.0521
   3496 H          18.9907   10.3583   19.2636 H     583  UNL583      0.0521
   3497 H          17.2420   10.4453   19.6001 H     583  UNL583      0.0521
   3498 H          18.5234    8.6698   17.7869 H     583  UNL583      0.2090
   3499 O          18.9194    9.9818   21.6857 O.3   584  UNL584     -0.3982
   3500 C          17.9312    8.9724   21.7805 C.3   584  UNL584      0.0330
   3501 H          17.6920    8.6004   20.7811 H     584  UNL584      0.0521
   3502 H          17.0349    9.3819   22.2526 H     584  UNL584      0.0521
   3503 H          18.3185    8.1520   22.3892 H     584  UNL584      0.0521
   3504 H          18.5472   10.6957   21.1404 H     584  UNL584      0.2090
   3505 O          18.0175   10.4135   24.4327 O.3   585  UNL585     -0.3982
   3506 C          18.5675    9.2941   25.1029 C.3   585  UNL585      0.0330
   3507 H          19.3216    9.6310   25.8185 H     585  UNL585      0.0521
   3508 H          19.0187    8.6171   24.3734 H     585  UNL585      0.0521
   3509 H          17.7696    8.7721   25.6363 H     585  UNL585      0.0521
   3510 H          18.7485   10.8563   23.9689 H     585  UNL585      0.2090
   3511 O          16.8682    8.7725   28.3933 O.3   586  UNL586     -0.3982
   3512 C          16.1118    9.9250   28.0707 C.3   586  UNL586      0.0330
   3513 H          15.1049    9.6280   27.7671 H     586  UNL586      0.0521
   3514 H          16.6028   10.4690   27.2601 H     586  UNL586      0.0521
   3515 H          16.0496   10.5674   28.9523 H     586  UNL586      0.0521
   3516 H          16.9060    8.2222   27.5925 H     586  UNL586      0.2090
   3517 O          18.9943   10.0340   31.7887 O.3   587  UNL587     -0.3982
   3518 C          17.9081    9.6447   30.9683 C.3   587  UNL587      0.0330
   3519 H          17.0747    9.3192   31.5958 H     587  UNL587      0.0521
   3520 H          18.2213    8.8312   30.3094 H     587  UNL587      0.0521
   3521 H          17.5946   10.4995   30.3646 H     587  UNL587      0.0521
   3522 H          19.2503    9.2556   32.3122 H     587  UNL587      0.2090
   3523 O          18.5493    7.9754   34.0951 O.3   588  UNL588     -0.3982
   3524 C          17.1359    8.0277   34.1593 C.3   588  UNL588      0.0330
   3525 H          16.8236    8.2137   35.1899 H     588  UNL588      0.0521
   3526 H          16.7190    7.0814   33.8061 H     588  UNL588      0.0521
   3527 H          16.7811    8.8404   33.5211 H     588  UNL588      0.0521
   3528 H          18.8345    7.2455   34.6708 H     588  UNL588      0.2090
   3529 O          18.0427   13.0438   -0.0871 O.3   589  UNL589     -0.3982
   3530 C          16.6691   12.7310   -0.2278 C.3   589  UNL589      0.0330
   3531 H          16.0693   13.6229   -0.0304 H     589  UNL589      0.0521
   3532 H          16.4018   11.9366    0.4732 H     589  UNL589      0.0521
   3533 H          16.4853   12.3897   -1.2493 H     589  UNL589      0.0521
   3534 H          18.1752   13.3434    0.8285 H     589  UNL589      0.2090
   3535 O          16.8190   13.0178    2.8207 O.3   590  UNL590     -0.3982
   3536 C          15.4271   12.7917    2.9469 C.3   590  UNL590      0.0330
   3537 H          14.9727   13.6134    3.5061 H     590  UNL590      0.0521
   3538 H          15.2564   11.8454    3.4660 H     590  UNL590      0.0521
   3539 H          14.9831   12.7430    1.9499 H     590  UNL590      0.0521
   3540 H          17.1850   13.0561    3.7207 H     590  UNL590      0.2090
   3541 O          17.1372   13.4625    6.2832 O.3   591  UNL591     -0.3982
   3542 C          15.7687   13.4766    5.9205 C.3   591  UNL591      0.0330
   3543 H          15.1525   13.5291    6.8215 H     591  UNL591      0.0521
   3544 H          15.5312   12.5717    5.3559 H     591  UNL591      0.0521
   3545 H          15.5752   14.3532    5.2977 H     591  UNL591      0.0521
   3546 H          17.2784   12.6742    6.8347 H     591  UNL591      0.2090
   3547 O          16.5443   13.2899    9.9758 O.3   592  UNL592     -0.3982
   3548 C          17.5796   12.6375    9.2637 C.3   592  UNL592      0.0330
   3549 H          18.1589   13.3757    8.7035 H     592  UNL592      0.0521
   3550 H          17.1462   11.9036    8.5799 H     592  UNL592      0.0521
   3551 H          18.2336   12.1278    9.9751 H     592  UNL592      0.0521
   3552 H          15.9807   13.7328    9.3187 H     592  UNL592      0.2090
   3553 O          17.3986   12.1647   12.6655 O.3   593  UNL593     -0.3982
   3554 C          18.3034   13.2227   12.4080 C.3   593  UNL593      0.0330
   3555 H          17.8085   13.9881   11.8050 H     593  UNL593      0.0521
   3556 H          19.1773   12.8352   11.8786 H     593  UNL593      0.0521
   3557 H          18.6199   13.6589   13.3584 H     593  UNL593      0.0521
   3558 H          17.1357   11.7976   11.8044 H     593  UNL593      0.2090
   3559 O          18.1426   12.5851   15.5642 O.3   594  UNL594     -0.3982
   3560 C          16.7691   12.9284   15.5429 C.3   594  UNL594      0.0330
   3561 H          16.1686   12.0471   15.7815 H     594  UNL594      0.0521
   3562 H          16.5026   13.3070   14.5531 H     594  UNL594      0.0521
   3563 H          16.5854   13.7048   16.2892 H     594  UNL594      0.0521
   3564 H          18.2750   11.8949   14.8922 H     594  UNL594      0.2090
   3565 O          16.9052   13.0535   18.4782 O.3   595  UNL595     -0.3982
   3566 C          15.5439   12.7069   18.6545 C.3   595  UNL595      0.0330
   3567 H          14.9629   13.6068   18.8711 H     595  UNL595      0.0521
   3568 H          15.4522   11.9942   19.4778 H     595  UNL595      0.0521
   3569 H          15.1721   12.2481   17.7353 H     595  UNL595      0.0521
   3570 H          17.2071   13.4578   19.3094 H     595  UNL595      0.2090
   3571 O          17.3467   12.2005   21.6874 O.3   596  UNL596     -0.3982
   3572 C          16.3156   13.1393   21.9325 C.3   596  UNL596      0.0330
   3573 H          15.4273   12.6189   22.2991 H     596  UNL596      0.0521
   3574 H          16.0821   13.6748   21.0090 H     596  UNL596      0.0521
   3575 H          16.6557   13.8515   22.6879 H     596  UNL596      0.0521
   3576 H          17.0160   11.5823   21.0136 H     596  UNL596      0.2090
   3577 O          17.9355   12.8317   24.6515 O.3   597  UNL597     -0.3982
   3578 C          16.5951   12.7025   25.0886 C.3   597  UNL597      0.0330
   3579 H          15.9589   12.4340   24.2416 H     597  UNL597      0.0521
   3580 H          16.2605   13.6469   25.5245 H     597  UNL597      0.0521
   3581 H          16.5424   11.9158   25.8449 H     597  UNL597      0.0521
   3582 H          17.9509   13.5364   23.9816 H     597  UNL597      0.2090
   3583 O          17.7471   12.5149   28.4744 O.3   598  UNL598     -0.3982
   3584 C          18.7101   13.3667   27.8815 C.3   598  UNL598      0.0330
   3585 H          18.9199   13.0282   26.8638 H     598  UNL598      0.0521
   3586 H          19.6258   13.3533   28.4775 H     598  UNL598      0.0521
   3587 H          18.3132   14.3841   27.8502 H     598  UNL598      0.0521
   3588 H          18.1273   11.6200   28.4884 H     598  UNL598      0.2090
   3589 O          17.6430   12.8373   31.3244 O.3   599  UNL599     -0.3982
   3590 C          16.2926   12.9845   30.9254 C.3   599  UNL599      0.0330
   3591 H          15.6939   13.3157   31.7776 H     599  UNL599      0.0521
   3592 H          15.9161   12.0294   30.5512 H     599  UNL599      0.0521
   3593 H          16.2364   13.7324   30.1309 H     599  UNL599      0.0521
   3594 H          17.6612   12.1680   32.0296 H     599  UNL599      0.2090
   3595 O          15.5468   13.3647   35.8604 O.3   600  UNL600     -0.3982
   3596 C          16.4937   12.5487   35.1954 C.3   600  UNL600      0.0330
   3597 H          17.4249   13.1048   35.0612 H     600  UNL600      0.0521
   3598 H          16.0955   12.2444   34.2244 H     600  UNL600      0.0521
   3599 H          16.6862   11.6609   35.8023 H     600  UNL600      0.0521
   3600 H          15.3963   14.1438   35.2985 H     600  UNL600      0.2090
   3601 O          17.2956   15.7204   -1.3058 O.3   601  UNL601     -0.3982
   3602 C          16.0093   16.3015   -1.1944 C.3   601  UNL601      0.0330
   3603 H          15.2580   15.5124   -1.1103 H     601  UNL601      0.0521
   3604 H          15.8094   16.9174   -2.0746 H     601  UNL601      0.0521
   3605 H          15.9787   16.9277   -0.2997 H     601  UNL601      0.0521
   3606 H          17.2923   15.1710   -2.1081 H     601  UNL601      0.2090
   3607 O          17.9640   16.3235    2.4874 O.3   602  UNL602     -0.3982
   3608 C          16.7177   15.9872    3.0687 C.3   602  UNL602      0.0330
   3609 H          16.3383   16.8393    3.6382 H     602  UNL602      0.0521
   3610 H          16.8424   15.1229    3.7256 H     602  UNL602      0.0521
   3611 H          16.0104   15.7390    2.2739 H     602  UNL602      0.0521
   3612 H          18.5705   16.5387    3.2164 H     602  UNL602      0.2090
   3613 O          18.8596   15.9474    7.0178 O.3   603  UNL603     -0.3982
   3614 C          18.0588   15.9803    5.8507 C.3   603  UNL603      0.0330
   3615 H          18.1831   16.9433    5.3493 H     603  UNL603      0.0521
   3616 H          17.0109   15.8315    6.1225 H     603  UNL603      0.0521
   3617 H          18.3760   15.1788    5.1794 H     603  UNL603      0.0521
   3618 H          18.5549   16.6692    7.5937 H     603  UNL603      0.2090
   3619 O          17.9546   16.4002    9.6939 O.3   604  UNL604     -0.3982
   3620 C          16.7835   16.0506    8.9790 C.3   604  UNL604      0.0330
   3621 H          16.0161   15.7108    9.6789 H     604  UNL604      0.0521
   3622 H          17.0155   15.2584    8.2631 H     604  UNL604      0.0521
   3623 H          16.4198   16.9294    8.4414 H     604  UNL604      0.0521
   3624 H          18.2537   15.6012   10.1603 H     604  UNL604      0.2090
   3625 O          16.4579   16.6476   11.6290 O.3   605  UNL605     -0.3982
   3626 C          16.2823   15.8876   12.8105 C.3   605  UNL605      0.0330
   3627 H          15.6496   15.0223   12.5976 H     605  UNL605      0.0521
   3628 H          15.8195   16.5104   13.5799 H     605  UNL605      0.0521
   3629 H          17.2587   15.5449   13.1609 H     605  UNL605      0.0521
   3630 H          15.5753   16.9377   11.3421 H     605  UNL605      0.2090
   3631 O          19.3071   15.8751   15.8002 O.3   606  UNL606     -0.3982
   3632 C          17.9560   16.2612   15.6269 C.3   606  UNL606      0.0330
   3633 H          17.3240   15.3707   15.5853 H     606  UNL606      0.0521
   3634 H          17.8560   16.8356   14.7027 H     606  UNL606      0.0521
   3635 H          17.6524   16.8816   16.4735 H     606  UNL606      0.0521
   3636 H          19.5478   15.3263   15.0344 H     606  UNL606      0.2090
   3637 O          17.5544   16.0190   18.5503 O.3   607  UNL607     -0.3982
   3638 C          16.1586   16.2565   18.5480 C.3   607  UNL607      0.0330
   3639 H          15.8399   16.5709   19.5449 H     607  UNL607      0.0521
   3640 H          15.6334   15.3435   18.2570 H     607  UNL607      0.0521
   3641 H          15.9341   17.0482   17.8295 H     607  UNL607      0.0521
   3642 H          17.7229   15.3124   19.1967 H     607  UNL607      0.2090
   3643 O          18.2259   15.0145   21.5717 O.3   608  UNL608     -0.3982
   3644 C          17.9239   16.3876   21.7382 C.3   608  UNL608      0.0330
   3645 H          17.3600   16.7451   20.8730 H     608  UNL608      0.0521
   3646 H          18.8515   16.9557   21.8420 H     608  UNL608      0.0521
   3647 H          17.3203   16.5118   22.6404 H     608  UNL608      0.0521
   3648 H          18.7617   14.9357   20.7641 H     608  UNL608      0.2090
   3649 O          19.1546   16.2662   24.5060 O.3   609  UNL609     -0.3982
   3650 C          17.9747   15.7760   25.1159 C.3   609  UNL609      0.0330
   3651 H          17.3090   15.3703   24.3499 H     609  UNL609      0.0521
   3652 H          17.4774   16.5869   25.6536 H     609  UNL609      0.0521
   3653 H          18.2412   14.9845   25.8202 H     609  UNL609      0.0521
   3654 H          18.8865   16.9666   23.8870 H     609  UNL609      0.2090
   3655 O          16.3948   15.2414   27.4080 O.3   610  UNL610     -0.3982
   3656 C          16.0387   16.4603   28.0342 C.3   610  UNL610      0.0330
   3657 H          16.5953   16.5672   28.9686 H     610  UNL610      0.0521
   3658 H          14.9645   16.4676   28.2347 H     610  UNL610      0.0521
   3659 H          16.2882   17.2887   27.3671 H     610  UNL610      0.0521
   3660 H          16.1617   14.5254   28.0232 H     610  UNL610      0.2090
   3661 O          17.2063   16.1587   31.8762 O.3   611  UNL611     -0.3982
   3662 C          18.2475   15.9109   30.9493 C.3   611  UNL611      0.0330
   3663 H          19.1823   15.7371   31.4880 H     611  UNL611      0.0521
   3664 H          18.3536   16.7690   30.2812 H     611  UNL611      0.0521
   3665 H          17.9972   15.0239   30.3626 H     611  UNL611      0.0521
   3666 H          17.4564   16.9508   32.3817 H     611  UNL611      0.2090
   3667 O          17.7301   15.3210   35.9270 O.3   612  UNL612     -0.3982
   3668 C          17.9910   16.3922   35.0387 C.3   612  UNL612      0.0330
   3669 H          18.3323   15.9962   34.0791 H     612  UNL612      0.0521
   3670 H          18.7549   17.0449   35.4681 H     612  UNL612      0.0521
   3671 H          17.0707   16.9617   34.8888 H     612  UNL612      0.0521
   3672 H          18.5643   14.8344   36.0406 H     612  UNL612      0.2090
   3673 O          16.0121   19.4542   -0.5440 O.3   613  UNL613     -0.3982
   3674 C          17.3412   19.2969   -0.0824 C.3   613  UNL613      0.0330
   3675 H          17.4163   18.3816    0.5100 H     613  UNL613      0.0521
   3676 H          17.6215   20.1608    0.5251 H     613  UNL613      0.0521
   3677 H          18.0103   19.2270   -0.9432 H     613  UNL613      0.0521
   3678 H          15.4419   19.5133    0.2415 H     613  UNL613      0.2090
   3679 O          17.6568   19.2425    3.1066 O.3   614  UNL614     -0.3982
   3680 C          16.2789   19.5087    2.9201 C.3   614  UNL614      0.0330
   3681 H          15.8405   19.8432    3.8636 H     614  UNL614      0.0521
   3682 H          15.7756   18.6030    2.5730 H     614  UNL614      0.0521
   3683 H          16.1673   20.2951    2.1699 H     614  UNL614      0.0521
   3684 H          17.7242   18.5413    3.7770 H     614  UNL614      0.2090
   3685 O          19.9023   18.5150    6.5446 O.3   615  UNL615     -0.3982
   3686 C          19.0528   19.4498    5.9050 C.3   615  UNL615      0.0330
   3687 H          19.0887   20.4019    6.4403 H     615  UNL615      0.0521
   3688 H          18.0302   19.0650    5.8924 H     615  UNL615      0.0521
   3689 H          19.3966   19.5982    4.8787 H     615  UNL615      0.0521
   3690 H          19.5726   18.4039    7.4526 H     615  UNL615      0.2090
   3691 O          18.4198   19.6448    9.4535 O.3   616  UNL616     -0.3982
   3692 C          17.2923   19.3015    8.6690 C.3   616  UNL616      0.0330
   3693 H          16.5042   18.9070    9.3152 H     616  UNL616      0.0521
   3694 H          17.5784   18.5526    7.9265 H     616  UNL616      0.0521
   3695 H          16.9284   20.1965    8.1590 H     616  UNL616      0.0521
   3696 H          18.7202   18.8313    9.8935 H     616  UNL616      0.2090
   3697 O          17.2430   19.2080   12.3672 O.3   617  UNL617     -0.3982
   3698 C          15.8592   19.5038   12.4121 C.3   617  UNL617      0.0330
   3699 H          15.6111   19.9446   13.3808 H     617  UNL617      0.0521
   3700 H          15.2847   18.5870   12.2590 H     617  UNL617      0.0521
   3701 H          15.6223   20.2164   11.6186 H     617  UNL617      0.0521
   3702 H          17.4230   18.5739   13.0822 H     617  UNL617      0.2090
   3703 O          18.3677   18.8965   15.5501 O.3   618  UNL618     -0.3982
   3704 C          17.0154   19.3031   15.4476 C.3   618  UNL618      0.0330
   3705 H          16.9504   20.2034   14.8316 H     618  UNL618      0.0521
   3706 H          16.6171   19.5019   16.4455 H     618  UNL618      0.0521
   3707 H          16.4380   18.5020   14.9801 H     618  UNL618      0.0521
   3708 H          18.8547   19.6269   15.9682 H     618  UNL618      0.2090
   3709 O          18.7694   18.6315   18.7731 O.3   619  UNL619     -0.3982
   3710 C          17.9238   19.7615   18.6606 C.3   619  UNL619      0.0330
   3711 H          16.8819   19.4349   18.6154 H     619  UNL619      0.0521
   3712 H          18.1809   20.3216   17.7583 H     619  UNL619      0.0521
   3713 H          18.0656   20.3999   19.5358 H     619  UNL619      0.0521
   3714 H          18.6217   18.0843   17.9831 H     619  UNL619      0.2090
   3715 O          17.8586   19.3448   21.6887 O.3   620  UNL620     -0.3982
   3716 C          16.4466   19.4157   21.6141 C.3   620  UNL620      0.0330
   3717 H          16.0702   20.0567   22.4152 H     620  UNL620      0.0521
   3718 H          16.0250   18.4119   21.7076 H     620  UNL620      0.0521
   3719 H          16.1626   19.8391   20.6478 H     620  UNL620      0.0521
   3720 H          18.0802   18.9655   22.5562 H     620  UNL620      0.2090
   3721 O          17.6065   19.2720   24.8084 O.3   621  UNL621     -0.3982
   3722 C          16.2195   19.0281   24.9543 C.3   621  UNL621      0.0330
   3723 H          16.0578   18.3100   25.7621 H     621  UNL621      0.0521
   3724 H          15.8173   18.6352   24.0173 H     621  UNL621      0.0521
   3725 H          15.7173   19.9671   25.1984 H     621  UNL621      0.0521
   3726 H          18.0250   18.4213   24.5922 H     621  UNL621      0.2090
   3727 O          18.3638   19.0810   27.0896 O.3   622  UNL622     -0.3982
   3728 C          17.9569   19.2220   28.4384 C.3   622  UNL622      0.0330
   3729 H          17.0676   19.8553   28.4874 H     622  UNL622      0.0521
   3730 H          18.7676   19.6681   29.0196 H     622  UNL622      0.0521
   3731 H          17.7215   18.2350   28.8435 H     622  UNL622      0.0521
   3732 H          18.5659   19.9723   26.7575 H     622  UNL622      0.2090
   3733 O          17.8391   19.5281   31.3373 O.3   623  UNL623     -0.3982
   3734 C          16.5067   19.1250   31.0795 C.3   623  UNL623      0.0330
   3735 H          15.9794   19.9229   30.5506 H     623  UNL623      0.0521
   3736 H          16.0028   18.9043   32.0236 H     623  UNL623      0.0521
   3737 H          16.5212   18.2266   30.4580 H     623  UNL623      0.0521
   3738 H          17.7941   20.3267   31.8902 H     623  UNL623      0.2090
   3739 O          18.4724   19.4943   34.1058 O.3   624  UNL624     -0.3982
   3740 C          18.0722   19.4901   35.4639 C.3   624  UNL624      0.0330
   3741 H          18.8473   19.0166   36.0716 H     624  UNL624      0.0521
   3742 H          17.1307   18.9449   35.5655 H     624  UNL624      0.0521
   3743 H          17.9311   20.5213   35.7959 H     624  UNL624      0.0521
   3744 H          18.5897   18.5664   33.8397 H     624  UNL624      0.2090
   3745 O          16.6424   23.2003   -1.2097 O.3   625  UNL625     -0.3982
   3746 C          17.7604   22.3680   -1.4584 C.3   625  UNL625      0.0330
   3747 H          18.5228   22.9328   -2.0007 H     625  UNL625      0.0521
   3748 H          17.4471   21.5015   -2.0458 H     625  UNL625      0.0521
   3749 H          18.1707   22.0295   -0.5042 H     625  UNL625      0.0521
   3750 H          16.3000   23.4848   -2.0742 H     625  UNL625      0.2090
   3751 O          17.4610   22.5525    3.0918 O.3   626  UNL626     -0.3982
   3752 C          16.0624   22.7529    3.1826 C.3   626  UNL626      0.0330
   3753 H          15.5925   21.8618    3.6063 H     626  UNL626      0.0521
   3754 H          15.6569   22.9536    2.1880 H     626  UNL626      0.0521
   3755 H          15.8676   23.6090    3.8327 H     626  UNL626      0.0521
   3756 H          17.6028   21.7871    2.5090 H     626  UNL626      0.2090
   3757 O          17.1458   21.6703    5.6125 O.3   627  UNL627     -0.3982
   3758 C          17.4134   22.9299    6.2011 C.3   627  UNL627      0.0330
   3759 H          17.9893   22.7891    7.1192 H     627  UNL627      0.0521
   3760 H          16.4712   23.4366    6.4234 H     627  UNL627      0.0521
   3761 H          17.9928   23.5341    5.4991 H     627  UNL627      0.0521
   3762 H          16.6309   21.1569    6.2582 H     627  UNL627      0.2090
   3763 O          17.5277   22.6968    9.4718 O.3   628  UNL628     -0.3982
   3764 C          16.1237   22.6091    9.3124 C.3   628  UNL628      0.0330
   3765 H          15.7317   21.8179    9.9563 H     628  UNL628      0.0521
   3766 H          15.8876   22.3936    8.2675 H     628  UNL628      0.0521
   3767 H          15.6736   23.5633    9.5960 H     628  UNL628      0.0521
   3768 H          17.8991   21.8363    9.2127 H     628  UNL628      0.2090
   3769 O          17.1517   22.4577   12.4471 O.3   629  UNL629     -0.3982
   3770 C          15.7889   22.7630   12.6791 C.3   629  UNL629      0.0330
   3771 H          15.2692   21.8689   13.0324 H     629  UNL629      0.0521
   3772 H          15.3321   23.1210   11.7532 H     629  UNL629      0.0521
   3773 H          15.7243   23.5440   13.4403 H     629  UNL629      0.0521
   3774 H          17.1771   21.7624   11.7678 H     629  UNL629      0.2090
   3775 O          18.4748   22.0518   16.0317 O.3   630  UNL630     -0.3982
   3776 C          17.3848   22.7186   15.4220 C.3   630  UNL630      0.0330
   3777 H          16.6519   21.9835   15.0801 H     630  UNL630      0.0521
   3778 H          17.7451   23.3100   14.5767 H     630  UNL630      0.0521
   3779 H          16.9186   23.3811   16.1549 H     630  UNL630      0.0521
   3780 H          18.8682   21.4718   15.3577 H     630  UNL630      0.2090
   3781 O          16.1353   23.5883   18.4047 O.3   631  UNL631     -0.3982
   3782 C          16.3687   22.2209   18.6879 C.3   631  UNL631      0.0330
   3783 H          15.8257   21.9375   19.5930 H     631  UNL631      0.0521
   3784 H          17.4398   22.0541   18.8254 H     631  UNL631      0.0521
   3785 H          16.0131   21.6186   17.8487 H     631  UNL631      0.0521
   3786 H          16.4608   24.0975   19.1665 H     631  UNL631      0.2090
   3787 O          18.8447   22.1830   22.0520 O.3   632  UNL632     -0.3982
   3788 C          17.6735   22.7806   21.5269 C.3   632  UNL632      0.0330
   3789 H          17.2882   23.5157   22.2380 H     632  UNL632      0.0521
   3790 H          16.9221   22.0095   21.3405 H     632  UNL632      0.0521
   3791 H          17.9203   23.2804   20.5873 H     632  UNL632      0.0521
   3792 H          18.5945   21.7476   22.8847 H     632  UNL632      0.2090
   3793 O          17.0731   22.1909   24.5210 O.3   633  UNL633     -0.3982
   3794 C          16.0254   22.8204   25.2356 C.3   633  UNL633      0.0330
   3795 H          15.4640   22.0698   25.7975 H     633  UNL633      0.0521
   3796 H          15.3643   23.3365   24.5352 H     633  UNL633      0.0521
   3797 H          16.4550   23.5462   25.9300 H     633  UNL633      0.0521
   3798 H          16.6615   21.5530   23.9134 H     633  UNL633      0.2090
   3799 O          18.7785   22.1915   28.8198 O.3   634  UNL634     -0.3982
   3800 C          18.1584   22.7931   27.6982 C.3   634  UNL634      0.0330
   3801 H          17.3596   23.4582   28.0354 H     634  UNL634      0.0521
   3802 H          17.7500   22.0168   27.0466 H     634  UNL634      0.0521
   3803 H          18.9039   23.3723   27.1482 H     634  UNL634      0.0521
   3804 H          18.0930   21.6849   29.2877 H     634  UNL634      0.2090
   3805 O          18.2552   22.6172   31.6919 O.3   635  UNL635     -0.3982
   3806 C          16.9270   22.7180   31.2120 C.3   635  UNL635      0.0330
   3807 H          16.4238   21.7545   31.3244 H     635  UNL635      0.0521
   3808 H          16.9403   23.0137   30.1601 H     635  UNL635      0.0521
   3809 H          16.3954   23.4744   31.7940 H     635  UNL635      0.0521
   3810 H          18.7016   21.9391   31.1567 H     635  UNL635      0.2090
   3811 O          16.9579   22.4217   34.1374 O.3   636  UNL636     -0.3982
   3812 C          16.3129   22.7952   35.3410 C.3   636  UNL636      0.0330
   3813 H          16.4137   21.9911   36.0743 H     636  UNL636      0.0521
   3814 H          15.2564   22.9921   35.1433 H     636  UNL636      0.0521
   3815 H          16.7835   23.7012   35.7300 H     636  UNL636      0.0521
   3816 H          16.5190   21.6156   33.8163 H     636  UNL636      0.2090
   3817 O          17.6553   26.2425   -2.0132 O.3   637  UNL637     -0.3982
   3818 C          18.4514   25.8666   -0.9045 C.3   637  UNL637      0.0330
   3819 H          18.9001   24.8879   -1.0921 H     637  UNL637      0.0521
   3820 H          17.8312   25.8287   -0.0057 H     637  UNL637      0.0521
   3821 H          19.2426   26.6074   -0.7676 H     637  UNL637      0.0521
   3822 H          16.9626   25.5670   -2.1098 H     637  UNL637      0.2090
   3823 O          19.1236   25.5934    3.2237 O.3   638  UNL638     -0.3982
   3824 C          17.8224   26.0449    2.8957 C.3   638  UNL638      0.0330
   3825 H          17.3228   26.4061    3.7980 H     638  UNL638      0.0521
   3826 H          17.2517   25.2245    2.4539 H     638  UNL638      0.0521
   3827 H          17.9010   26.8613    2.1739 H     638  UNL638      0.0521
   3828 H          19.0217   24.8698    3.8652 H     638  UNL638      0.2090
   3829 O          18.5823   26.1295    6.0907 O.3   639  UNL639     -0.3982
   3830 C          18.1966   27.4917    6.0913 C.3   639  UNL639      0.0330
   3831 H          18.2475   27.8853    7.1095 H     639  UNL639      0.0521
   3832 H          17.1788   27.5833    5.7043 H     639  UNL639      0.0521
   3833 H          18.8796   28.0547    5.4508 H     639  UNL639      0.0521
   3834 H          17.9586   25.6557    6.6669 H     639  UNL639      0.2090
   3835 O          18.9189   25.5308    9.2927 O.3   640  UNL640     -0.3982
   3836 C          17.5300   25.7788    9.1740 C.3   640  UNL640      0.0330
   3837 H          17.3705   26.7967    8.8098 H     640  UNL640      0.0521
   3838 H          17.0514   25.6496   10.1477 H     640  UNL640      0.0521
   3839 H          17.1018   25.0684    8.4629 H     640  UNL640      0.0521
   3840 H          19.2708   26.1758    9.9296 H     640  UNL640      0.2090
   3841 O          17.8928   26.8842   12.4363 O.3   641  UNL641     -0.3982
   3842 C          18.0733   25.4805   12.4768 C.3   641  UNL641      0.0330
   3843 H          18.8720   25.2351   13.1811 H     641  UNL641      0.0521
   3844 H          18.3283   25.1162   11.4787 H     641  UNL641      0.0521
   3845 H          17.1430   25.0120   12.8065 H     641  UNL641      0.0521
   3846 H          18.7340   27.2720   12.1406 H     641  UNL641      0.2090
   3847 O          18.8494   26.6141   15.1940 O.3   642  UNL642     -0.3982
   3848 C          18.1343   25.4946   15.6837 C.3   642  UNL642      0.0330
   3849 H          17.5031   25.0884   14.8895 H     642  UNL642      0.0521
   3850 H          17.5185   25.7979   16.5339 H     642  UNL642      0.0521
   3851 H          18.8464   24.7314   16.0064 H     642  UNL642      0.0521
   3852 H          18.1916   27.2738   14.9155 H     642  UNL642      0.2090
   3853 O          18.1921   28.0546   18.9167 O.3   643  UNL643     -0.3982
   3854 C          16.9341   27.4248   18.7574 C.3   643  UNL643      0.0330
   3855 H          17.0809   26.3588   18.5665 H     643  UNL643      0.0521
   3856 H          16.3984   27.8848   17.9235 H     643  UNL643      0.0521
   3857 H          16.3544   27.5521   19.6746 H     643  UNL643      0.0521
   3858 H          18.6835   27.9250   18.0877 H     643  UNL643      0.2090
   3859 O          19.3387   25.1032   22.2283 O.3   644  UNL644     -0.3982
   3860 C          18.3331   25.9797   21.7536 C.3   644  UNL644      0.0330
   3861 H          18.1856   25.8204   20.6826 H     644  UNL644      0.0521
   3862 H          18.6317   27.0139   21.9414 H     644  UNL644      0.0521
   3863 H          17.4006   25.7702   22.2828 H     644  UNL644      0.0521
   3864 H          20.1536   25.3127   21.7408 H     644  UNL644      0.2090
   3865 O          18.5300   26.8204   24.6017 O.3   645  UNL645     -0.3982
   3866 C          18.2524   25.4743   24.9414 C.3   645  UNL645      0.0330
   3867 H          17.4843   25.0795   24.2717 H     645  UNL645      0.0521
   3868 H          17.9092   25.4225   25.9775 H     645  UNL645      0.0521
   3869 H          19.1657   24.8848   24.8325 H     645  UNL645      0.0521
   3870 H          17.7017   27.3186   24.7079 H     645  UNL645      0.2090
   3871 O          18.3746   28.0545   27.0723 O.3   646  UNL646     -0.3982
   3872 C          17.9339   27.4611   28.2798 C.3   646  UNL646      0.0330
   3873 H          18.5823   27.7778   29.1005 H     646  UNL646      0.0521
   3874 H          17.9573   26.3730   28.1819 H     646  UNL646      0.0521
   3875 H          16.9100   27.7846   28.4817 H     646  UNL646      0.0521
   3876 H          19.2852   27.7492   26.9197 H     646  UNL646      0.2090
   3877 O          19.1429   25.7347   30.6384 O.3   647  UNL647     -0.3982
   3878 C          17.9550   26.0291   31.3503 C.3   647  UNL647      0.0330
   3879 H          17.7319   25.2129   32.0420 H     647  UNL647      0.0521
   3880 H          17.1299   26.1597   30.6459 H     647  UNL647      0.0521
   3881 H          18.0988   26.9532   31.9150 H     647  UNL647      0.0521
   3882 H          18.9849   24.9104   30.1475 H     647  UNL647      0.2090
   3883 O          18.5719   25.4379   36.0725 O.3   648  UNL648     -0.3982
   3884 C          17.9450   26.0733   34.9735 C.3   648  UNL648      0.0330
   3885 H          17.3921   25.3329   34.3901 H     648  UNL648      0.0521
   3886 H          18.7020   26.5537   34.3489 H     648  UNL648      0.0521
   3887 H          17.2518   26.8299   35.3487 H     648  UNL648      0.0521
   3888 H          19.1805   24.7725   35.7086 H     648  UNL648      0.2090
   3889 O          23.5427   -1.1560    0.8114 O.3   649  UNL649     -0.3982
   3890 C          22.6057   -1.0980   -0.2484 C.3   649  UNL649      0.0330
   3891 H          21.9445   -1.9668   -0.1993 H     649  UNL649      0.0521
   3892 H          23.1356   -1.0836   -1.2040 H     649  UNL649      0.0521
   3893 H          22.0131   -0.1857   -0.1492 H     649  UNL649      0.0521
   3894 H          24.0535   -1.9754    0.6966 H     649  UNL649      0.2090
   3895 O          21.4538   -1.0817    2.7809 O.3   650  UNL650     -0.3982
   3896 C          21.0229    0.2165    3.1462 C.3   650  UNL650      0.0330
   3897 H          20.5603    0.1829    4.1358 H     650  UNL650      0.0521
   3898 H          20.3050    0.5840    2.4090 H     650  UNL650      0.0521
   3899 H          21.8878    0.8835    3.1732 H     650  UNL650      0.0521
   3900 H          20.6654   -1.6506    2.7653 H     650  UNL650      0.2090
   3901 O          21.0315   -1.0957    6.1926 O.3   651  UNL651     -0.3982
   3902 C          22.2506   -1.1005    5.4727 C.3   651  UNL651      0.0330
   3903 H          22.2095   -1.8619    4.6899 H     651  UNL651      0.0521
   3904 H          23.0774   -1.3095    6.1560 H     651  UNL651      0.0521
   3905 H          22.3975   -0.1190    5.0160 H     651  UNL651      0.0521
   3906 H          20.9287   -1.9789    6.5863 H     651  UNL651      0.2090
   3907 O          21.3941    0.8287    9.7767 O.3   652  UNL652     -0.3982
   3908 C          21.0720   -0.3715    9.0981 C.3   652  UNL652      0.0330
   3909 H          21.0550   -1.2004    9.8100 H     652  UNL652      0.0521
   3910 H          21.8146   -0.5612    8.3193 H     652  UNL652      0.0521
   3911 H          20.0856   -0.2670    8.6402 H     652  UNL652      0.0521
   3912 H          22.2738    0.7059   10.1723 H     652  UNL652      0.2090
   3913 O          19.2198   -0.2207   11.4920 O.3   653  UNL653     -0.3982
   3914 C          19.9236   -0.3171   12.7167 C.3   653  UNL653      0.0330
   3915 H          19.4358    0.3082   13.4686 H     653  UNL653      0.0521
   3916 H          20.9565    0.0085   12.5710 H     653  UNL653      0.0521
   3917 H          19.9155   -1.3574   13.0502 H     653  UNL653      0.0521
   3918 H          19.2440    0.7130   11.2213 H     653  UNL653      0.2090
   3919 O          23.1284   -1.6597   13.8808 O.3   654  UNL654     -0.3982
   3920 C          23.6753   -1.1516   12.6778 C.3   654  UNL654      0.0330
   3921 H          24.7386   -0.9430   12.8194 H     654  UNL654      0.0521
   3922 H          23.1482   -0.2372   12.3946 H     654  UNL654      0.0521
   3923 H          23.5545   -1.8982   11.8893 H     654  UNL654      0.0521
   3924 H          23.2502   -0.9758   14.5612 H     654  UNL654      0.2090
   3925 O          21.7640   -1.1586   18.5721 O.3   655  UNL655     -0.3982
   3926 C          20.3645   -1.0979   18.7780 C.3   655  UNL655      0.0330
   3927 H          20.0418   -1.9691   19.3533 H     655  UNL655      0.0521
   3928 H          19.8539   -1.0762   17.8121 H     655  UNL655      0.0521
   3929 H          20.1263   -0.1881   19.3340 H     655  UNL655      0.0521
   3930 H          21.9447   -1.9756   18.0768 H     655  UNL655      0.2090
   3931 O          22.7269   -1.7606   22.1712 O.3   656  UNL656     -0.3982
   3932 C          21.6788   -1.1296   21.4586 C.3   656  UNL656      0.0330
   3933 H          22.1005   -0.4835   20.6846 H     656  UNL656      0.0521
   3934 H          21.0710   -0.5399   22.1492 H     656  UNL656      0.0521
   3935 H          21.0555   -1.8954   20.9911 H     656  UNL656      0.0521
   3936 H          23.2625   -1.0565   22.5747 H     656  UNL656      0.2090
   3937 O          22.9706    0.1464   25.2307 O.3   657  UNL657     -0.3982
   3938 C          21.7028    0.0982   24.6024 C.3   657  UNL657      0.0330
   3939 H          21.6712    0.8253   23.7872 H     657  UNL657      0.0521
   3940 H          20.9235    0.3218   25.3349 H     657  UNL657      0.0521
   3941 H          21.5440   -0.9048   24.1994 H     657  UNL657      0.0521
   3942 H          23.0831    1.0476   25.5782 H     657  UNL657      0.2090
   3943 O          22.0381   -0.5173   28.1398 O.3   658  UNL658     -0.3982
   3944 C          20.6337   -0.6180   27.9913 C.3   658  UNL658      0.0330
   3945 H          20.2308   -1.2759   28.7654 H     658  UNL658      0.0521
   3946 H          20.3987   -1.0162   27.0013 H     658  UNL658      0.0521
   3947 H          20.1932    0.3763   28.0957 H     658  UNL658      0.0521
   3948 H          22.4007   -1.4143   28.0424 H     658  UNL658      0.2090
   3949 O          20.9846   -0.5605   31.2018 O.3   659  UNL659     -0.3982
   3950 C          19.7589    0.1476   31.1746 C.3   659  UNL659      0.0330
   3951 H          19.0262   -0.3661   31.8021 H     659  UNL659      0.0521
   3952 H          19.3949    0.2083   30.1461 H     659  UNL659      0.0521
   3953 H          19.9227    1.1563   31.5609 H     659  UNL659      0.0521
   3954 H          20.8078   -1.4511   30.8536 H     659  UNL659      0.2090
   3955 O          21.8393    0.0023   35.4534 O.3   660  UNL660     -0.3982
   3956 C          20.4324   -0.0359   35.2995 C.3   660  UNL660      0.0330
   3957 H          20.0553   -1.0076   35.6280 H     660  UNL660      0.0521
   3958 H          20.1750    0.1312   34.2508 H     660  UNL660      0.0521
   3959 H          19.9865    0.7515   35.9117 H     660  UNL660      0.0521
   3960 H          22.2067   -0.7070   34.8989 H     660  UNL660      0.2090
   3961 O          21.1870    3.2428   -2.0777 O.3   661  UNL661     -0.3982
   3962 C          22.3218    2.9711   -1.2758 C.3   661  UNL661      0.0330
   3963 H          22.0309    2.3385   -0.4335 H     661  UNL661      0.0521
   3964 H          22.7446    3.9103   -0.9110 H     661  UNL661      0.0521
   3965 H          23.0672    2.4490   -1.8803 H     661  UNL661      0.0521
   3966 H          20.5436    3.7060   -1.5146 H     661  UNL661      0.2090
   3967 O          20.6304    3.4044    2.1782 O.3   662  UNL662     -0.3982
   3968 C          19.8374    3.1939    3.3319 C.3   662  UNL662      0.0330
   3969 H          20.4844    2.9743    4.1849 H     662  UNL662      0.0521
   3970 H          19.1519    2.3611    3.1570 H     662  UNL662      0.0521
   3971 H          19.2619    4.0995    3.5376 H     662  UNL662      0.0521
   3972 H          21.1292    2.5846    2.0208 H     662  UNL662      0.2090
   3973 O          22.8996    1.4979    7.0600 O.3   663  UNL663     -0.3982
   3974 C          21.5479    1.5580    6.6432 C.3   663  UNL663      0.0330
   3975 H          20.9794    0.7623    7.1311 H     663  UNL663      0.0521
   3976 H          21.4951    1.4450    5.5576 H     663  UNL663      0.0521
   3977 H          21.1313    2.5272    6.9271 H     663  UNL663      0.0521
   3978 H          23.2420    0.6273    6.7946 H     663  UNL663      0.2090
   3979 O          21.7671    3.1778    9.2615 O.3   664  UNL664     -0.3982
   3980 C          20.3572    3.1608    9.1335 C.3   664  UNL664      0.0330
   3981 H          19.9112    3.7679    9.9252 H     664  UNL664      0.0521
   3982 H          19.9967    2.1315    9.2021 H     664  UNL664      0.0521
   3983 H          20.0837    3.5763    8.1608 H     664  UNL664      0.0521
   3984 H          21.9794    2.8035   10.1335 H     664  UNL664      0.2090
   3985 O          20.9034    2.6270   12.4287 O.3   665  UNL665     -0.3982
   3986 C          19.6225    3.2093   12.5863 C.3   665  UNL665      0.0330
   3987 H          18.8701    2.4207   12.6662 H     665  UNL665      0.0521
   3988 H          19.4046    3.8500   11.7284 H     665  UNL665      0.0521
   3989 H          19.6153    3.8105   13.4985 H     665  UNL665      0.0521
   3990 H          20.8792    2.1001   11.6118 H     665  UNL665      0.2090
   3991 O          23.5667    1.2498   16.7539 O.3   666  UNL666     -0.3982
   3992 C          22.3558    1.2349   16.0204 C.3   666  UNL666      0.0330
   3993 H          21.7582    0.3701   16.3192 H     666  UNL666      0.0521
   3994 H          22.5769    1.1867   14.9514 H     666  UNL666      0.0521
   3995 H          21.7996    2.1507   16.2342 H     666  UNL666      0.0521
   3996 H          24.0380    0.4255   16.5439 H     666  UNL666      0.2090
   3997 O          22.2331    3.2858   18.4388 O.3   667  UNL667     -0.3982
   3998 C          20.8284    3.1931   18.5892 C.3   667  UNL667      0.0330
   3999 H          20.5581    3.3957   19.6285 H     667  UNL667      0.0521
   4000 H          20.4957    2.1923   18.3035 H     667  UNL667      0.0521
   4001 H          20.3521    3.9320   17.9405 H     667  UNL667      0.0521
   4002 H          22.6279    2.6188   19.0259 H     667  UNL667      0.2090
   4003 O          22.9945    1.9065   22.0710 O.3   668  UNL668     -0.3982
   4004 C          21.6908    2.1001   21.5538 C.3   668  UNL668      0.0330
   4005 H          20.9587    1.6573   22.2336 H     668  UNL668      0.0521
   4006 H          21.6163    1.6350   20.5678 H     668  UNL668      0.0521
   4007 H          21.4998    3.1720   21.4640 H     668  UNL668      0.0521
   4008 H          23.1351    0.9468   22.1394 H     668  UNL668      0.2090
   4009 O          23.0461    3.4077   25.0910 O.3   669  UNL669     -0.3982
   4010 C          21.6347    3.2976   25.0775 C.3   669  UNL669      0.0330
   4011 H          21.3402    2.3255   25.4808 H     669  UNL669      0.0521
   4012 H          21.2698    3.4047   24.0531 H     669  UNL669      0.0521
   4013 H          21.2105    4.0906   25.6978 H     669  UNL669      0.0521
   4014 H          23.3939    2.6916   24.5326 H     669  UNL669      0.2090
   4015 O          21.6669    3.1184   28.0928 O.3   670  UNL670     -0.3982
   4016 C          20.2573    3.2507   28.1072 C.3   670  UNL670      0.0330
   4017 H          19.8071    2.3236   28.4706 H     670  UNL670      0.0521
   4018 H          19.9008    3.4703   27.0979 H     670  UNL670      0.0521
   4019 H          19.9843    4.0717   28.7744 H     670  UNL670      0.0521
   4020 H          21.8787    2.3830   27.4929 H     670  UNL670      0.2090
   4021 O          22.9293    4.0087   30.7187 O.3   671  UNL671     -0.3982
   4022 C          22.2720    2.9473   31.3864 C.3   671  UNL671      0.0330
   4023 H          23.0091    2.2109   31.7160 H     671  UNL671      0.0521
   4024 H          21.5521    2.4803   30.7097 H     671  UNL671      0.0521
   4025 H          21.7451    3.3467   32.2561 H     671  UNL671      0.0521
   4026 H          23.3875    3.6239   29.9522 H     671  UNL671      0.2090
   4027 O          22.8052    3.6758   35.3046 O.3   672  UNL672     -0.3982
   4028 C          21.5113    3.1052   35.2356 C.3   672  UNL672      0.0330
   4029 H          21.3719    2.4140   36.0705 H     672  UNL672      0.0521
   4030 H          21.3959    2.5754   34.2869 H     672  UNL672      0.0521
   4031 H          20.7674    3.9029   35.2977 H     672  UNL672      0.0521
   4032 H          23.4434    2.9444   35.2470 H     672  UNL672      0.2090
   4033 O          21.8259    6.5274   -1.4008 O.3   673  UNL673     -0.3982
   4034 C          20.4762    6.4706   -0.9770 C.3   673  UNL673      0.0330
   4035 H          20.3255    5.5843   -0.3557 H     673  UNL673      0.0521
   4036 H          19.8205    6.4323   -1.8503 H     673  UNL673      0.0521
   4037 H          20.2494    7.3654   -0.3927 H     673  UNL673      0.0521
   4038 H          21.9977    5.7210   -1.9164 H     673  UNL673      0.2090
   4039 O          21.0225    6.0742    2.8993 O.3   674  UNL674     -0.3982
   4040 C          22.2727    6.2512    2.2590 C.3   674  UNL674      0.0330
   4041 H          23.0418    6.4531    3.0087 H     674  UNL674      0.0521
   4042 H          22.2076    7.0842    1.5548 H     674  UNL674      0.0521
   4043 H          22.5266    5.3375    1.7166 H     674  UNL674      0.0521
   4044 H          20.8240    6.9006    3.3719 H     674  UNL674      0.2090
   4045 O          22.5848    4.2355    7.0658 O.3   675  UNL675     -0.3982
   4046 C          21.9041    4.3699    5.8317 C.3   675  UNL675      0.0330
   4047 H          22.0554    5.3785    5.4390 H     675  UNL675      0.0521
   4048 H          20.8381    4.1813    5.9802 H     675  UNL675      0.0521
   4049 H          22.3055    3.6415    5.1233 H     675  UNL675      0.0521
   4050 H          22.2073    4.8941    7.6735 H     675  UNL675      0.2090
   4051 O          21.7728    6.6656    9.6243 O.3   676  UNL676     -0.3982
   4052 C          20.4370    6.4481    9.2086 C.3   676  UNL676      0.0330
   4053 H          19.9253    5.8167    9.9393 H     676  UNL676      0.0521
   4054 H          20.4336    5.9654    8.2283 H     676  UNL676      0.0521
   4055 H          19.9250    7.4107    9.1401 H     676  UNL676      0.0521
   4056 H          22.2015    5.7944    9.6760 H     676  UNL676      0.2090
   4057 O          21.1854    6.6660   12.9842 O.3   677  UNL677     -0.3982
   4058 C          22.1593    5.8028   12.4266 C.3   677  UNL677      0.0330
   4059 H          22.8608    6.3845   11.8235 H     677  UNL677      0.0521
   4060 H          21.6673    5.0491   11.8069 H     677  UNL677      0.0521
   4061 H          22.7011    5.3084   13.2363 H     677  UNL677      0.0521
   4062 H          20.7212    7.0901   12.2424 H     677  UNL677      0.2090
   4063 O          22.8856    4.7748   15.9396 O.3   678  UNL678     -0.3982
   4064 C          21.5833    4.8089   15.3852 C.3   678  UNL678      0.0330
   4065 H          20.8626    4.4478   16.1231 H     678  UNL678      0.0521
   4066 H          21.5505    4.1817   14.4910 H     678  UNL678      0.0521
   4067 H          21.3393    5.8388   15.1144 H     678  UNL678      0.0521
   4068 H          23.0739    3.8490   16.1699 H     678  UNL678      0.2090
   4069 O          21.5554    6.3372   19.1412 O.3   679  UNL679     -0.3982
   4070 C          20.2533    6.5171   18.6153 C.3   679  UNL679      0.0330
   4071 H          19.6414    5.6418   18.8471 H     679  UNL679      0.0521
   4072 H          20.3126    6.6573   17.5332 H     679  UNL679      0.0521
   4073 H          19.8053    7.4032   19.0711 H     679  UNL679      0.0521
   4074 H          21.9272    5.5444   18.7184 H     679  UNL679      0.2090
   4075 O          20.3300    5.2471   21.3769 O.3   680  UNL680     -0.3982
   4076 C          20.3173    6.5310   21.9735 C.3   680  UNL680      0.0330
   4077 H          19.4728    6.6050   22.6632 H     680  UNL680      0.0521
   4078 H          20.2345    7.2943   21.1959 H     680  UNL680      0.0521
   4079 H          21.2492    6.6756   22.5252 H     680  UNL680      0.0521
   4080 H          19.4913    5.1478   20.8948 H     680  UNL680      0.2090
   4081 O          22.0608    6.2095   24.9219 O.3   681  UNL681     -0.3982
   4082 C          20.6743    6.4569   25.0660 C.3   681  UNL681      0.0330
   4083 H          20.1204    5.5255   24.9243 H     681  UNL681      0.0521
   4084 H          20.3569    7.1979   24.3283 H     681  UNL681      0.0521
   4085 H          20.4845    6.8418   26.0707 H     681  UNL681      0.0521
   4086 H          22.1983    5.8692   24.0215 H     681  UNL681      0.2090
   4087 O          22.1585    7.3699   27.8462 O.3   682  UNL682     -0.3982
   4088 C          21.8737    5.9924   28.0071 C.3   682  UNL682      0.0330
   4089 H          20.7972    5.8545   28.1348 H     682  UNL682      0.0521
   4090 H          22.4071    5.6088   28.8802 H     682  UNL682      0.0521
   4091 H          22.2045    5.4547   27.1155 H     682  UNL682      0.0521
   4092 H          21.8541    7.8206   28.6522 H     682  UNL682      0.2090
   4093 O          22.0328    6.6193   31.2129 O.3   683  UNL683     -0.3982
   4094 C          20.6657    6.3813   30.9322 C.3   683  UNL683      0.0330
   4095 H          20.0542    6.7406   31.7637 H     683  UNL683      0.0521
   4096 H          20.5044    5.3109   30.7833 H     683  UNL683      0.0521
   4097 H          20.3910    6.9190   30.0218 H     683  UNL683      0.0521
   4098 H          22.2471    6.1298   32.0252 H     683  UNL683      0.2090
   4099 O          22.8942    6.6609   34.9002 O.3   684  UNL684     -0.3982
   4100 C          21.5906    6.5578   35.4429 C.3   684  UNL684      0.0330
   4101 H          21.5174    5.6506   36.0478 H     684  UNL684      0.0521
   4102 H          20.8588    6.5280   34.6320 H     684  UNL684      0.0521
   4103 H          21.3980    7.4295   36.0727 H     684  UNL684      0.0521
   4104 H          23.0362    5.8741   34.3467 H     684  UNL684      0.2090
   4105 O          21.3051    9.6694   -2.0681 O.3   685  UNL685     -0.3982
   4106 C          22.1348    9.7507   -0.9237 C.3   685  UNL685      0.0330
   4107 H          22.8218    8.9009   -0.9095 H     685  UNL685      0.0521
   4108 H          21.5161    9.7479   -0.0231 H     685  UNL685      0.0521
   4109 H          22.7084   10.6795   -0.9661 H     685  UNL685      0.0521
   4110 H          20.8089    8.8357   -2.0025 H     685  UNL685      0.2090
   4111 O          23.1736    9.0951    3.4390 O.3   686  UNL686     -0.3982
   4112 C          21.9431    9.5665    2.9213 C.3   686  UNL686      0.0330
   4113 H          22.1309   10.1898    2.0434 H     686  UNL686      0.0521
   4114 H          21.4222   10.1455    3.6877 H     686  UNL686      0.0521
   4115 H          21.3278    8.7110    2.6331 H     686  UNL686      0.0521
   4116 H          23.6977    9.8762    3.6858 H     686  UNL686      0.2090
   4117 O          22.6642    7.8544    6.9287 O.3   687  UNL687     -0.3982
   4118 C          21.7274    8.2196    5.9318 C.3   687  UNL687      0.0330
   4119 H          20.7201    8.2083    6.3554 H     687  UNL687      0.0521
   4120 H          21.7909    7.5180    5.0965 H     687  UNL687      0.0521
   4121 H          21.9601    9.2265    5.5775 H     687  UNL687      0.0521
   4122 H          22.4324    6.9573    7.2236 H     687  UNL687      0.2090
   4123 O          21.4920   10.3234    8.5465 O.3   688  UNL688     -0.3982
   4124 C          21.9466    9.5330    9.6295 C.3   688  UNL688      0.0330
   4125 H          22.6623    8.7916    9.2656 H     688  UNL688      0.0521
   4126 H          21.0958    9.0337   10.0996 H     688  UNL688      0.0521
   4127 H          22.4360   10.1803   10.3610 H     688  UNL688      0.0521
   4128 H          21.0625    9.7221    7.9144 H     688  UNL688      0.2090
   4129 O          21.6487    9.5028   12.6146 O.3   689  UNL689     -0.3982
   4130 C          20.2618    9.7648   12.5033 C.3   689  UNL689      0.0330
   4131 H          19.6992    8.8541   12.7230 H     689  UNL689      0.0521
   4132 H          20.0355   10.1105   11.4917 H     689  UNL689      0.0521
   4133 H          19.9882   10.5416   13.2212 H     689  UNL689      0.0521
   4134 H          21.8616    8.8103   11.9661 H     689  UNL689      0.2090
   4135 O          21.8425   10.1558   15.1737 O.3   690  UNL690     -0.3982
   4136 C          20.6571    9.6031   15.7158 C.3   690  UNL690      0.0330
   4137 H          20.9144    8.8531   16.4677 H     690  UNL690      0.0521
   4138 H          20.0684    9.1463   14.9165 H     690  UNL690      0.0521
   4139 H          20.0750   10.4005   16.1839 H     690  UNL690      0.0521
   4140 H          22.3377    9.4253   14.7655 H     690  UNL690      0.2090
   4141 O          22.6305    8.7372   18.8090 O.3   691  UNL691     -0.3982
   4142 C          21.8932    9.8892   18.4429 C.3   691  UNL691      0.0330
   4143 H          21.9803   10.6436   19.2288 H     691  UNL691      0.0521
   4144 H          20.8444    9.6201   18.2959 H     691  UNL691      0.0521
   4145 H          22.2987   10.2890   17.5106 H     691  UNL691      0.0521
   4146 H          22.2480    8.4051   19.6390 H     691  UNL691      0.2090
   4147 O          22.9567    9.7175   21.8953 O.3   692  UNL692     -0.3982
   4148 C          21.5413    9.7103   21.8643 C.3   692  UNL692      0.0330
   4149 H          21.1736    8.7361   22.1960 H     692  UNL692      0.0521
   4150 H          21.1971    9.9147   20.8476 H     692  UNL692      0.0521
   4151 H          21.1672   10.4864   22.5361 H     692  UNL692      0.0521
   4152 H          23.2593    9.0191   21.2901 H     692  UNL692      0.2090
   4153 O          22.9524    9.7696   24.9854 O.3   693  UNL693     -0.3982
   4154 C          21.5751    9.4446   25.0302 C.3   693  UNL693      0.0330
   4155 H          21.3088    8.8596   24.1464 H     693  UNL693      0.0521
   4156 H          20.9841   10.3631   25.0640 H     693  UNL693      0.0521
   4157 H          21.3784    8.8542   25.9281 H     693  UNL693      0.0521
   4158 H          23.0964   10.2930   24.1786 H     693  UNL693      0.2090
   4159 O          21.0443   10.2614   28.0137 O.3   694  UNL694     -0.3982
   4160 C          19.9746    9.3507   28.1897 C.3   694  UNL694      0.0330
   4161 H          20.0533    8.5478   27.4525 H     694  UNL694      0.0521
   4162 H          19.0241    9.8766   28.0714 H     694  UNL694      0.0521
   4163 H          20.0310    8.9263   29.1948 H     694  UNL694      0.0521
   4164 H          20.9678   10.6214   27.1137 H     694  UNL694      0.2090
   4165 O          21.9009    9.0393   32.0535 O.3   695  UNL695     -0.3982
   4166 C          22.1774    9.8365   30.9166 C.3   695  UNL695      0.0330
   4167 H          21.3732   10.5630   30.7756 H     695  UNL695      0.0521
   4168 H          22.2643    9.1973   30.0347 H     695  UNL695      0.0521
   4169 H          23.1200   10.3658   31.0746 H     695  UNL695      0.0521
   4170 H          21.0595    8.5822   31.8841 H     695  UNL695      0.2090
   4171 O          21.8846    9.8890   35.5475 O.3   696  UNL696     -0.3982
   4172 C          20.5235    9.6880   35.2138 C.3   696  UNL696      0.0330
   4173 H          20.1365    8.8255   35.7622 H     696  UNL696      0.0521
   4174 H          20.4322    9.5201   34.1379 H     696  UNL696      0.0521
   4175 H          19.9545   10.5785   35.4909 H     696  UNL696      0.0521
   4176 H          22.3639    9.0831   35.2901 H     696  UNL696      0.2090
   4177 O          22.0265   13.5208   -1.1306 O.3   697  UNL697     -0.3982
   4178 C          20.8251   12.8014   -1.3395 C.3   697  UNL697      0.0330
   4179 H          20.5158   12.3276   -0.4045 H     697  UNL697      0.0521
   4180 H          20.9829   12.0429   -2.1101 H     697  UNL697      0.0521
   4181 H          20.0480   13.4954   -1.6682 H     697  UNL697      0.0521
   4182 H          22.6969   12.8792   -0.8400 H     697  UNL697      0.2090
   4183 O          21.8624   12.4805    2.7668 O.3   698  UNL698     -0.3982
   4184 C          20.5214   12.8768    2.9886 C.3   698  UNL698      0.0330
   4185 H          20.4715   13.9651    3.0747 H     698  UNL698      0.0521
   4186 H          20.1496   12.4108    3.9044 H     698  UNL698      0.0521
   4187 H          19.9104   12.5519    2.1432 H     698  UNL698      0.0521
   4188 H          22.3799   12.7823    3.5327 H     698  UNL698      0.2090
   4189 O          19.9115   12.7658    6.3596 O.3   699  UNL699     -0.3982
   4190 C          21.2954   12.6789    6.0738 C.3   699  UNL699      0.0330
   4191 H          21.8691   12.8695    6.9843 H     699  UNL699      0.0521
   4192 H          21.5564   13.4113    5.3060 H     699  UNL699      0.0521
   4193 H          21.5203   11.6745    5.7076 H     699  UNL699      0.0521
   4194 H          19.7424   13.6674    6.6822 H     699  UNL699      0.2090
   4195 O          22.1698   12.8763    9.2801 O.3   700  UNL700     -0.3982
   4196 C          20.7617   13.0016    9.2017 C.3   700  UNL700      0.0330
   4197 H          20.3468   13.0962   10.2083 H     700  UNL700      0.0521
   4198 H          20.3439   12.1226    8.7049 H     700  UNL700      0.0521
   4199 H          20.5162   13.8954    8.6233 H     700  UNL700      0.0521
   4200 H          22.3569   12.0752    9.7985 H     700  UNL700      0.2090
   4201 O          22.0321   13.8133   12.0481 O.3   701  UNL701     -0.3982
   4202 C          21.8645   12.4758   12.4810 C.3   701  UNL701      0.0330
   4203 H          20.8678   12.3536   12.9122 H     701  UNL701      0.0521
   4204 H          22.6273   12.2345   13.2253 H     701  UNL701      0.0521
   4205 H          21.9721   11.8084   11.6227 H     701  UNL701      0.0521
   4206 H          21.9313   14.3816   12.8306 H     701  UNL701      0.2090
   4207 O          22.2514   12.7281   15.7029 O.3   702  UNL702     -0.3982
   4208 C          20.9104   13.0161   15.3518 C.3   702  UNL702      0.0330
   4209 H          20.3735   13.3830   16.2302 H     702  UNL702      0.0521
   4210 H          20.4307   12.1118   14.9697 H     702  UNL702      0.0521
   4211 H          20.9037   13.7852   14.5758 H     702  UNL702      0.0521
   4212 H          22.2254   12.0432   16.3926 H     702  UNL702      0.2090
   4213 O          20.9513   12.9634   18.8196 O.3   703  UNL703     -0.3982
   4214 C          19.6110   12.6806   18.4615 C.3   703  UNL703      0.0330
   4215 H          19.1188   13.5995   18.1334 H     703  UNL703      0.0521
   4216 H          19.0843   12.2595   19.3214 H     703  UNL703      0.0521
   4217 H          19.6070   11.9558   17.6440 H     703  UNL703      0.0521
   4218 H          20.9227   13.6086   19.5465 H     703  UNL703      0.2090
   4219 O          21.4658   12.8066   21.6926 O.3   704  UNL704     -0.3982
   4220 C          20.0718   12.8690   21.9322 C.3   704  UNL704      0.0330
   4221 H          19.7187   11.8983   22.2891 H     704  UNL704      0.0521
   4222 H          19.5543   13.1400   21.0088 H     704  UNL704      0.0521
   4223 H          19.8758   13.6279   22.6933 H     704  UNL704      0.0521
   4224 H          21.6088   12.1254   21.0136 H     704  UNL704      0.2090
   4225 O          21.9160   13.0836   24.4446 O.3   705  UNL705     -0.3982
   4226 C          20.6465   12.8333   25.0193 C.3   705  UNL705      0.0330
   4227 H          20.7749   12.3859   26.0081 H     705  UNL705      0.0521
   4228 H          20.0797   12.1586   24.3732 H     705  UNL705      0.0521
   4229 H          20.1080   13.7789   25.1168 H     705  UNL705      0.0521
   4230 H          22.3700   12.2270   24.3707 H     705  UNL705      0.2090
   4231 O          23.3700   13.1368   27.0783 O.3   706  UNL706     -0.3982
   4232 C          22.7863   12.9365   28.3526 C.3   706  UNL706      0.0330
   4233 H          23.2657   12.0864   28.8444 H     706  UNL706      0.0521
   4234 H          21.7159   12.7489   28.2385 H     706  UNL706      0.0521
   4235 H          22.9343   13.8349   28.9564 H     706  UNL706      0.0521
   4236 H          23.2229   12.3238   26.5657 H     706  UNL706      0.2090
   4237 O          21.8919   13.1820   31.6158 O.3   707  UNL707     -0.3982
   4238 C          20.6563   12.9345   30.9704 C.3   707  UNL707      0.0330
   4239 H          20.0419   12.2818   31.5956 H     707  UNL707      0.0521
   4240 H          20.8384   12.4631   30.0016 H     707  UNL707      0.0521
   4241 H          20.1379   13.8843   30.8194 H     707  UNL707      0.0521
   4242 H          22.3287   12.3216   31.7363 H     707  UNL707      0.2090
   4243 O          21.5196   12.5408   34.5660 O.3   708  UNL708     -0.3982
   4244 C          20.1462   12.7647   34.3050 C.3   708  UNL708      0.0330
   4245 H          20.0307   13.6761   33.7131 H     708  UNL708      0.0521
   4246 H          19.6057   12.8602   35.2498 H     708  UNL708      0.0521
   4247 H          19.7481   11.9158   33.7442 H     708  UNL708      0.0521
   4248 H          21.8448   13.3098   35.0642 H     708  UNL708      0.2090
   4249 O          20.9535   16.3594   -0.4600 O.3   709  UNL709     -0.3982
   4250 C          19.7865   15.9794    0.2458 C.3   709  UNL709      0.0330
   4251 H          19.3435   15.0997   -0.2278 H     709  UNL709      0.0521
   4252 H          19.0724   16.8065    0.2430 H     709  UNL709      0.0521
   4253 H          20.0573   15.7382    1.2763 H     709  UNL709      0.0521
   4254 H          20.6820   16.5674   -1.3702 H     709  UNL709      0.2090
   4255 O          22.7188   15.4210    3.2535 O.3   710  UNL710     -0.3982
   4256 C          21.7036   16.4035    3.1613 C.3   710  UNL710      0.0330
   4257 H          20.7297   15.9400    3.3375 H     710  UNL710      0.0521
   4258 H          21.7271   16.8610    2.1693 H     710  UNL710      0.0521
   4259 H          21.8818   17.1708    3.9183 H     710  UNL710      0.0521
   4260 H          22.5342   14.7543    2.5703 H     710  UNL710      0.2090
   4261 O          22.9293   15.8931    5.9655 O.3   711  UNL711     -0.3982
   4262 C          21.5698   15.9797    6.3514 C.3   711  UNL711      0.0330
   4263 H          20.9383   16.0108    5.4600 H     711  UNL711      0.0521
   4264 H          21.4170   16.8803    6.9509 H     711  UNL711      0.0521
   4265 H          21.3128   15.1004    6.9467 H     711  UNL711      0.0521
   4266 H          23.1279   16.6862    5.4391 H     711  UNL711      0.2090
   4267 O          23.3103   16.6933    8.7623 O.3   712  UNL712     -0.3982
   4268 C          22.3206   16.0769    9.5655 C.3   712  UNL712      0.0330
   4269 H          22.7726   15.2689   10.1462 H     712  UNL712      0.0521
   4270 H          21.5266   15.6814    8.9274 H     712  UNL712      0.0521
   4271 H          21.9011   16.8213   10.2462 H     712  UNL712      0.0521
   4272 H          23.6640   16.0087    8.1691 H     712  UNL712      0.2090
   4273 O          21.4113   16.7616   12.6392 O.3   713  UNL713     -0.3982
   4274 C          20.2157   16.0344   12.4238 C.3   713  UNL713      0.0330
   4275 H          20.2404   15.1101   13.0064 H     713  UNL713      0.0521
   4276 H          20.1145   15.8047   11.3604 H     713  UNL713      0.0521
   4277 H          19.3671   16.6427   12.7454 H     713  UNL713      0.0521
   4278 H          22.1461   16.1969   12.3447 H     713  UNL713      0.2090
   4279 O          23.6186   16.9472   15.3201 O.3   714  UNL714     -0.3982
   4280 C          22.6533   15.9673   15.6554 C.3   714  UNL714      0.0330
   4281 H          23.0405   15.3320   16.4559 H     714  UNL714      0.0521
   4282 H          22.4252   15.3628   14.7741 H     714  UNL714      0.0521
   4283 H          21.7438   16.4668   15.9972 H     714  UNL714      0.0521
   4284 H          24.4137   16.4743   15.0205 H     714  UNL714      0.2090
   4285 O          21.7449   15.5901   18.7303 O.3   715  UNL715     -0.3982
   4286 C          20.4268   16.0743   18.5495 C.3   715  UNL715      0.0330
   4287 H          20.4461   16.9515   17.8980 H     715  UNL715      0.0521
   4288 H          19.9980   16.3370   19.5196 H     715  UNL715      0.0521
   4289 H          19.8214   15.2920   18.0857 H     715  UNL715      0.0521
   4290 H          22.2580   16.3055   19.1432 H     715  UNL715      0.2090
   4291 O          22.7951   15.5030   21.8356 O.3   716  UNL716     -0.3982
   4292 C          21.5203   16.1016   21.6907 C.3   716  UNL716      0.0330
   4293 H          21.5782   16.9118   20.9595 H     716  UNL716      0.0521
   4294 H          21.1877   16.4908   22.6560 H     716  UNL716      0.0521
   4295 H          20.8115   15.3477   21.3405 H     716  UNL716      0.0521
   4296 H          23.4023   16.1956   22.1472 H     716  UNL716      0.2090
   4297 O          22.9567   16.4917   24.6156 O.3   717  UNL717     -0.3982
   4298 C          21.7875   15.8583   25.1015 C.3   717  UNL717      0.0330
   4299 H          21.2919   15.3292   24.2837 H     717  UNL717      0.0521
   4300 H          21.1149   16.6082   25.5250 H     717  UNL717      0.0521
   4301 H          22.0676   15.1431   25.8784 H     717  UNL717      0.0521
   4302 H          22.6766   17.1200   23.9283 H     717  UNL717      0.2090
   4303 O          21.6042   16.4634   28.0460 O.3   718  UNL718     -0.3982
   4304 C          20.2197   16.1702   28.0073 C.3   718  UNL718      0.0330
   4305 H          19.9574   15.5325   28.8551 H     718  UNL718      0.0521
   4306 H          19.9797   15.6642   27.0690 H     718  UNL718      0.0521
   4307 H          19.6568   17.1045   28.0691 H     718  UNL718      0.0521
   4308 H          22.0774   15.6158   27.9894 H     718  UNL718      0.2090
   4309 O          21.6616   15.9348   32.1768 O.3   719  UNL719     -0.3982
   4310 C          21.7702   16.2248   30.7953 C.3   719  UNL719      0.0330
   4311 H          21.8918   15.2943   30.2351 H     719  UNL719      0.0521
   4312 H          22.6286   16.8794   30.6259 H     719  UNL719      0.0521
   4313 H          20.8591   16.7297   30.4656 H     719  UNL719      0.0521
   4314 H          22.4839   15.4875   32.4403 H     719  UNL719      0.2090
   4315 O          20.9505   15.9749   34.9164 O.3   720  UNL720     -0.3982
   4316 C          22.3259   16.2072   35.1592 C.3   720  UNL720      0.0330
   4317 H          22.8272   15.2568   35.3589 H     720  UNL720      0.0521
   4318 H          22.4377   16.8772   36.0151 H     720  UNL720      0.0521
   4319 H          22.7692   16.6717   34.2753 H     720  UNL720      0.0521
   4320 H          20.5847   15.5626   35.7175 H     720  UNL720      0.2090
   4321 O          22.1345   18.9846   -1.0383 O.3   721  UNL721     -0.3982
   4322 C          20.8011   19.4602   -1.0507 C.3   721  UNL721      0.0330
   4323 H          20.1267   18.6655   -0.7221 H     721  UNL721      0.0521
   4324 H          20.5374   19.7818   -2.0611 H     721  UNL721      0.0521
   4325 H          20.7203   20.3092   -0.3678 H     721  UNL721      0.0521
   4326 H          22.1752   18.2323   -1.6530 H     721  UNL721      0.2090
   4327 O          21.8683   19.8263    2.2171 O.3   722  UNL722     -0.3982
   4328 C          20.5682   19.2810    2.0870 C.3   722  UNL722      0.0330
   4329 H          20.5982   18.4219    1.4123 H     722  UNL722      0.0521
   4330 H          19.8903   20.0428    1.6942 H     722  UNL722      0.0521
   4331 H          20.2186   18.9574    3.0702 H     722  UNL722      0.0521
   4332 H          22.1516   20.1044    1.3295 H     722  UNL722      0.2090
   4333 O          23.2863   18.7809    7.0277 O.3   723  UNL723     -0.3982
   4334 C          22.6406   19.5932    6.0645 C.3   723  UNL723      0.0330
   4335 H          22.1577   18.9593    5.3167 H     723  UNL723      0.0521
   4336 H          23.3750   20.2454    5.5855 H     723  UNL723      0.0521
   4337 H          21.8850   20.2041    6.5639 H     723  UNL723      0.0521
   4338 H          23.9506   18.2508    6.5553 H     723  UNL723      0.2090
   4339 O          22.8336   19.4483    9.5835 O.3   724  UNL724     -0.3982
   4340 C          21.5037   19.2592    9.1360 C.3   724  UNL724      0.0330
   4341 H          21.2327   20.0626    8.4465 H     724  UNL724      0.0521
   4342 H          20.8267   19.2569    9.9937 H     724  UNL724      0.0521
   4343 H          21.4360   18.2995    8.6186 H     724  UNL724      0.0521
   4344 H          22.8626   20.3073   10.0384 H     724  UNL724      0.2090
   4345 O          21.6024   19.6810   12.2573 O.3   725  UNL725     -0.3982
   4346 C          20.2194   19.4024   12.3760 C.3   725  UNL725      0.0330
   4347 H          19.9512   19.3276   13.4328 H     725  UNL725      0.0521
   4348 H          19.9904   18.4647   11.8639 H     725  UNL725      0.0521
   4349 H          19.6524   20.2146   11.9151 H     725  UNL725      0.0521
   4350 H          22.0793   18.9435   12.6748 H     725  UNL725      0.2090
   4351 O          22.8650   19.5566   15.9506 O.3   726  UNL726     -0.3982
   4352 C          21.6130   19.4354   15.3008 C.3   726  UNL726      0.0330
   4353 H          20.8107   19.4870   16.0411 H     726  UNL726      0.0521
   4354 H          21.5695   18.4833   14.7664 H     726  UNL726      0.0521
   4355 H          21.5016   20.2560   14.5882 H     726  UNL726      0.0521
   4356 H          22.9352   18.8154   16.5761 H     726  UNL726      0.2090
   4357 O          22.9590   19.4525   18.8630 O.3   727  UNL727     -0.3982
   4358 C          21.5761   19.1498   18.8447 C.3   727  UNL727      0.0330
   4359 H          21.2660   18.9197   17.8224 H     727  UNL727      0.0521
   4360 H          21.0103   20.0037   19.2250 H     727  UNL727      0.0521
   4361 H          21.3940   18.2817   19.4825 H     727  UNL727      0.0521
   4362 H          23.0897   20.2263   18.2887 H     727  UNL727      0.2090
   4363 O          22.1078   19.2653   21.4154 O.3   728  UNL728     -0.3982
   4364 C          20.7207   19.3035   21.6963 C.3   728  UNL728      0.0330
   4365 H          20.4339   20.3183   21.9832 H     728  UNL728      0.0521
   4366 H          20.4928   18.6062   22.5061 H     728  UNL728      0.0521
   4367 H          20.1686   19.0108   20.8002 H     728  UNL728      0.0521
   4368 H          22.5714   19.5296   22.2283 H     728  UNL728      0.2090
   4369 O          21.9478   19.3688   24.6701 O.3   729  UNL729     -0.3982
   4370 C          20.5412   19.4576   24.8038 C.3   729  UNL729      0.0330
   4371 H          20.2920   19.8415   25.7962 H     729  UNL729      0.0521
   4372 H          20.0977   18.4690   24.6619 H     729  UNL729      0.0521
   4373 H          20.1544   20.1404   24.0437 H     729  UNL729      0.0521
   4374 H          22.2620   18.7565   25.3571 H     729  UNL729      0.2090
   4375 O          22.8992   19.1197   28.3251 O.3   730  UNL730     -0.3982
   4376 C          21.6576   19.5437   27.7931 C.3   730  UNL730      0.0330
   4377 H          21.0192   19.9085   28.6016 H     730  UNL730      0.0521
   4378 H          21.1745   18.7072   27.2822 H     730  UNL730      0.0521
   4379 H          21.8342   20.3511   27.0787 H     730  UNL730      0.0521
   4380 H          22.7105   18.4034   28.9551 H     730  UNL730      0.2090
   4381 O          22.1680   19.4039   31.0911 O.3   731  UNL731     -0.3982
   4382 C          20.7817   19.1815   31.2734 C.3   731  UNL731      0.0330
   4383 H          20.3409   18.8352   30.3354 H     731  UNL731      0.0521
   4384 H          20.3019   20.1097   31.5931 H     731  UNL731      0.0521
   4385 H          20.6425   18.4182   32.0426 H     731  UNL731      0.0521
   4386 H          22.2601   20.0852   30.4035 H     731  UNL731      0.2090
   4387 O          23.0550   19.3526   35.4227 O.3   732  UNL732     -0.3982
   4388 C          21.6531   19.5018   35.2928 C.3   732  UNL732      0.0330
   4389 H          21.1516   18.6322   35.7246 H     732  UNL732      0.0521
   4390 H          21.3925   19.5987   34.2361 H     732  UNL732      0.0521
   4391 H          21.3406   20.4023   35.8268 H     732  UNL732      0.0521
   4392 H          23.3025   18.5461   34.9392 H     732  UNL732      0.2090
   4393 O          22.9905   22.4779   -1.1259 O.3   733  UNL733     -0.3982
   4394 C          22.9991   22.7495    0.2635 C.3   733  UNL733      0.0330
   4395 H          23.2092   21.8293    0.8143 H     733  UNL733      0.0521
   4396 H          22.0285   23.1524    0.5629 H     733  UNL733      0.0521
   4397 H          23.7780   23.4853    0.4769 H     733  UNL733      0.0521
   4398 H          22.2899   21.8225   -1.2846 H     733  UNL733      0.2090
   4399 O          22.2095   22.9309    2.9683 O.3   734  UNL734     -0.3982
   4400 C          20.8867   22.4299    2.9074 C.3   734  UNL734      0.0330
   4401 H          20.1813   23.2321    3.1379 H     734  UNL734      0.0521
   4402 H          20.7724   21.6127    3.6237 H     734  UNL734      0.0521
   4403 H          20.6942   22.0570    1.8987 H     734  UNL734      0.0521
   4404 H          22.3511   23.2543    3.8744 H     734  UNL734      0.2090
   4405 O          21.8976   22.9677    6.0987 O.3   735  UNL735     -0.3982
   4406 C          20.5297   22.6514    6.2808 C.3   735  UNL735      0.0330
   4407 H          20.4370   21.8249    6.9897 H     735  UNL735      0.0521
   4408 H          20.0882   22.3733    5.3207 H     735  UNL735      0.0521
   4409 H          20.0120   23.5281    6.6770 H     735  UNL735      0.0521
   4410 H          22.3306   22.1714    5.7466 H     735  UNL735      0.2090
   4411 O          20.4794   23.4884    9.2270 O.3   736  UNL736     -0.3982
   4412 C          21.3920   22.4252    9.4298 C.3   736  UNL736      0.0330
   4413 H          21.7481   22.0599    8.4633 H     736  UNL736      0.0521
   4414 H          20.8974   21.6186    9.9764 H     736  UNL736      0.0521
   4415 H          22.2400   22.7912   10.0134 H     736  UNL736      0.0521
   4416 H          19.7384   23.1336    8.7068 H     736  UNL736      0.2090
   4417 O          21.5935   22.2588   12.1869 O.3   737  UNL737     -0.3982
   4418 C          20.2276   22.6092   12.3135 C.3   737  UNL737      0.0330
   4419 H          20.1368   23.6933   12.4175 H     737  UNL737      0.0521
   4420 H          19.8025   22.1117   13.1886 H     737  UNL737      0.0521
   4421 H          19.6931   22.2853   11.4174 H     737  UNL737      0.0521
   4422 H          22.0416   22.5586   12.9961 H     737  UNL737      0.2090
   4423 O          22.6704   22.5742   15.5409 O.3   738  UNL738     -0.3982
   4424 C          21.2695   22.7210   15.6845 C.3   738  UNL738      0.0330
   4425 H          20.8252   21.7552   15.9378 H     738  UNL738      0.0521
   4426 H          20.8440   23.0962   14.7506 H     738  UNL738      0.0521
   4427 H          21.0674   23.4343   16.4869 H     738  UNL738      0.0521
   4428 H          22.8186   21.9360   14.8224 H     738  UNL738      0.2090
   4429 O          21.5056   22.4163   19.0007 O.3   739  UNL739     -0.3982
   4430 C          20.1257   22.2329   18.7422 C.3   739  UNL739      0.0330
   4431 H          19.9833   21.3307   18.1421 H     739  UNL739      0.0521
   4432 H          19.7352   23.1032   18.2092 H     739  UNL739      0.0521
   4433 H          19.5977   22.1230   19.6923 H     739  UNL739      0.0521
   4434 H          21.9475   22.5108   18.1398 H     739  UNL739      0.2090
   4435 O          23.2167   23.4673   21.7011 O.3   740  UNL740     -0.3982
   4436 C          22.4730   22.2653   21.6203 C.3   740  UNL740      0.0330
   4437 H          21.4053   22.4973   21.5962 H     740  UNL740      0.0521
   4438 H          22.7006   21.6362   22.4842 H     740  UNL740      0.0521
   4439 H          22.7496   21.7373   20.7048 H     740  UNL740      0.0521
   4440 H          22.9500   23.9136   22.5229 H     740  UNL740      0.2090
   4441 O          21.9702   22.5638   24.8939 O.3   741  UNL741     -0.3982
   4442 C          20.5712   22.7452   25.0137 C.3   741  UNL741      0.0330
   4443 H          20.1176   21.8347   25.4129 H     741  UNL741      0.0521
   4444 H          20.1477   22.9764   24.0332 H     741  UNL741      0.0521
   4445 H          20.3778   23.5757   25.6966 H     741  UNL741      0.0521
   4446 H          22.1107   21.8210   24.2823 H     741  UNL741      0.2090
   4447 O          22.7353   23.0913   27.5575 O.3   742  UNL742     -0.3982
   4448 C          21.5873   22.6074   28.2301 C.3   742  UNL742      0.0330
   4449 H          21.8700   21.7812   28.8871 H     742  UNL742      0.0521
   4450 H          20.8505   22.2688   27.4976 H     742  UNL742      0.0521
   4451 H          21.1588   23.4153   28.8279 H     742  UNL742      0.0521
   4452 H          23.0932   22.3529   27.0357 H     742  UNL742      0.2090
   4453 O          23.1308   23.0979   30.5216 O.3   743  UNL743     -0.3982
   4454 C          22.0991   22.6132   31.3614 C.3   743  UNL743      0.0330
   4455 H          22.5296   21.9785   32.1399 H     743  UNL743      0.0521
   4456 H          21.3817   22.0426   30.7665 H     743  UNL743      0.0521
   4457 H          21.5908   23.4616   31.8257 H     743  UNL743      0.0521
   4458 H          23.5632   22.3230   30.1240 H     743  UNL743      0.2090
   4459 O          19.7195   22.3789   34.8377 O.3   744  UNL744     -0.3982
   4460 C          21.0638   22.8209   34.8804 C.3   744  UNL744      0.0330
   4461 H          21.6968   22.1190   34.3317 H     744  UNL744      0.0521
   4462 H          21.3930   22.8888   35.9202 H     744  UNL744      0.0521
   4463 H          21.1286   23.8071   34.4149 H     744  UNL744      0.0521
   4464 H          19.6935   21.5022   35.2575 H     744  UNL744      0.2090
   4465 O          21.8202   26.9156   -1.1409 O.3   745  UNL745     -0.3982
   4466 C          21.8712   25.5360   -0.8268 C.3   745  UNL745      0.0330
   4467 H          22.8472   25.1331   -1.1088 H     745  UNL745      0.0521
   4468 H          21.0787   25.0095   -1.3642 H     745  UNL745      0.0521
   4469 H          21.7246   25.4108    0.2485 H     745  UNL745      0.0521
   4470 H          21.9533   26.9952   -2.1008 H     745  UNL745      0.2090
   4471 O          21.6534   28.0300    1.8003 O.3   746  UNL746     -0.3982
   4472 C          21.9126   27.1688    2.8937 C.3   746  UNL746      0.0330
   4473 H          22.8366   27.4761    3.3898 H     746  UNL746      0.0521
   4474 H          22.0036   26.1406    2.5351 H     746  UNL746      0.0521
   4475 H          21.0828   27.2334    3.6014 H     746  UNL746      0.0521
   4476 H          22.4062   27.9512    1.1899 H     746  UNL746      0.2090
   4477 O          22.8798   26.1088    6.4219 O.3   747  UNL747     -0.3982
   4478 C          21.5429   25.9451    5.9858 C.3   747  UNL747      0.0330
   4479 H          20.9942   25.3376    6.7099 H     747  UNL747      0.0521
   4480 H          21.5348   25.4600    5.0067 H     747  UNL747      0.0521
   4481 H          21.0721   26.9278    5.9069 H     747  UNL747      0.0521
   4482 H          23.2713   25.2207    6.4823 H     747  UNL747      0.2090
   4483 O          21.8627   26.0798    9.0322 O.3   748  UNL748     -0.3982
   4484 C          21.6940   27.4506    9.3438 C.3   748  UNL748      0.0330
   4485 H          22.3227   28.0549    8.6851 H     748  UNL748      0.0521
   4486 H          21.9683   27.6244   10.3871 H     748  UNL748      0.0521
   4487 H          20.6465   27.7225    9.1945 H     748  UNL748      0.0521
   4488 H          22.8011   25.8679    9.1740 H     748  UNL748      0.2090
   4489 O          20.9215   26.3849   12.4529 O.3   749  UNL749     -0.3982
   4490 C          22.1288   25.6461   12.4215 C.3   749  UNL749      0.0330
   4491 H          22.5709   25.7109   11.4242 H     749  UNL749      0.0521
   4492 H          21.9252   24.6027   12.6743 H     749  UNL749      0.0521
   4493 H          22.8222   26.0673   13.1532 H     749  UNL749      0.0521
   4494 H          20.3266   25.9882   11.7939 H     749  UNL749      0.2090
   4495 O          22.1406   26.8731   15.2586 O.3   750  UNL750     -0.3982
   4496 C          21.8567   25.4979   15.4398 C.3   750  UNL750      0.0330
   4497 H          21.1686   25.3746   16.2799 H     750  UNL750      0.0521
   4498 H          22.7854   24.9556   15.6332 H     750  UNL750      0.0521
   4499 H          21.3922   25.1082   14.5310 H     750  UNL750      0.0521
   4500 H          22.5516   27.1907   16.0806 H     750  UNL750      0.2090
   4501 O          21.7947   25.4595   18.5157 O.3   751  UNL751     -0.3982
   4502 C          20.4435   25.7768   18.7946 C.3   751  UNL751      0.0330
   4503 H          19.8976   25.9066   17.8568 H     751  UNL751      0.0521
   4504 H          20.3983   26.6953   19.3850 H     751  UNL751      0.0521
   4505 H          19.9964   24.9583   19.3636 H     751  UNL751      0.0521
   4506 H          22.1645   26.2036   18.0105 H     751  UNL751      0.2090
   4507 O          22.4184   26.2048   21.4092 O.3   752  UNL752     -0.3982
   4508 C          21.8381   27.4654   21.6896 C.3   752  UNL752      0.0330
   4509 H          22.5235   28.0545   22.3038 H     752  UNL752      0.0521
   4510 H          20.8912   27.3226   22.2159 H     752  UNL752      0.0521
   4511 H          21.6539   27.9889   20.7485 H     752  UNL752      0.0521
   4512 H          22.5701   25.7639   22.2625 H     752  UNL752      0.2090
   4513 O          22.9537   25.6578   24.9621 O.3   753  UNL753     -0.3982
   4514 C          21.5962   26.0600   24.9559 C.3   753  UNL753      0.0330
   4515 H          21.0000   25.3422   25.5247 H     753  UNL753      0.0521
   4516 H          21.2360   26.1137   23.9257 H     753  UNL753      0.0521
   4517 H          21.5156   27.0459   25.4196 H     753  UNL753      0.0521
   4518 H          22.9937   24.7805   24.5447 H     753  UNL753      0.2090
   4519 O          22.8095   25.6422   27.7020 O.3   754  UNL754     -0.3982
   4520 C          21.4246   25.7382   27.9801 C.3   754  UNL754      0.0330
   4521 H          21.0570   26.7198   27.6706 H     754  UNL754      0.0521
   4522 H          21.2562   25.5950   29.0502 H     754  UNL754      0.0521
   4523 H          20.8957   24.9613   27.4231 H     754  UNL754      0.0521
   4524 H          23.2521   26.3435   28.2098 H     754  UNL754      0.2090
   4525 O          22.0547   25.8980   31.5096 O.3   755  UNL755     -0.3982
   4526 C          22.0122   27.2387   31.0566 C.3   755  UNL755      0.0330
   4527 H          21.8872   27.9091   31.9106 H     755  UNL755      0.0521
   4528 H          21.1810   27.3620   30.3582 H     755  UNL755      0.0521
   4529 H          22.9505   27.4717   30.5476 H     755  UNL755      0.0521
   4530 H          21.2096   25.7205   31.9566 H     755  UNL755      0.2090
   4531 O          22.9658   26.7563   35.3053 O.3   756  UNL756     -0.3982
   4532 C          21.5770   27.0318   35.3121 C.3   756  UNL756      0.0330
   4533 H          21.0533   26.2549   35.8746 H     756  UNL756      0.0521
   4534 H          21.2063   27.0653   34.2848 H     756  UNL756      0.0521
   4535 H          21.4092   28.0000   35.7895 H     756  UNL756      0.0521
   4536 H          23.0835   25.8918   34.8760 H     756  UNL756      0.2090
   4537 O          27.6584   -0.9727   -1.1716 O.3   757  UNL757     -0.3982
   4538 C          26.2456   -1.0148   -1.0898 C.3   757  UNL757      0.0330
   4539 H          25.9435   -1.1337   -0.0463 H     757  UNL757      0.0521
   4540 H          25.8700   -1.8496   -1.6865 H     757  UNL757      0.0521
   4541 H          25.8391   -0.0789   -1.4802 H     757  UNL757      0.0521
   4542 H          27.9903   -1.8158   -0.8185 H     757  UNL757      0.2090
   4543 O          27.7002   -0.8647    3.2149 O.3   758  UNL758     -0.3982
   4544 C          26.3285   -1.1696    3.0413 C.3   758  UNL758      0.0330
   4545 H          26.0022   -1.8487    3.8329 H     758  UNL758      0.0521
   4546 H          26.1785   -1.6337    2.0636 H     758  UNL758      0.0521
   4547 H          25.7493   -0.2448    3.0959 H     758  UNL758      0.0521
   4548 H          28.1883   -1.7040    3.1616 H     758  UNL758      0.2090
   4549 O          27.4505   -0.9678    6.4512 O.3   759  UNL759     -0.3982
   4550 C          26.4682   -0.0357    6.0382 C.3   759  UNL759      0.0330
   4551 H          26.8932    0.6340    5.2864 H     759  UNL759      0.0521
   4552 H          26.1247    0.5395    6.9015 H     759  UNL759      0.0521
   4553 H          25.6241   -0.5775    5.6050 H     759  UNL759      0.0521
   4554 H          28.1863   -0.4580    6.8311 H     759  UNL759      0.2090
   4555 O          26.8232   -0.9091    9.2248 O.3   760  UNL760     -0.3982
   4556 C          25.4383   -1.1587    9.3801 C.3   760  UNL760      0.0330
   4557 H          25.2888   -1.9257   10.1441 H     760  UNL760      0.0521
   4558 H          25.0180   -1.4909    8.4278 H     760  UNL760      0.0521
   4559 H          24.9438   -0.2357    9.6919 H     760  UNL760      0.0521
   4560 H          27.2349   -1.7454    8.9480 H     760  UNL760      0.2090
   4561 O          27.4046   -1.2151   12.5749 O.3   761  UNL761     -0.3982
   4562 C          27.3438    0.1992   12.5508 C.3   761  UNL761      0.0330
   4563 H          26.3009    0.5189   12.4843 H     761  UNL761      0.0521
   4564 H          27.9064    0.5743   11.6924 H     761  UNL761      0.0521
   4565 H          27.7844    0.5896   13.4712 H     761  UNL761      0.0521
   4566 H          27.0069   -1.5324   11.7463 H     761  UNL761      0.2090
   4567 O          27.7649   -1.0983   15.4406 O.3   762  UNL762     -0.3982
   4568 C          26.3620   -1.1005   15.6312 C.3   762  UNL762      0.0330
   4569 H          26.0935   -1.8701   16.3591 H     762  UNL762      0.0521
   4570 H          25.8643   -1.2958   14.6782 H     762  UNL762      0.0521
   4571 H          26.0530   -0.1225   16.0074 H     762  UNL762      0.0521
   4572 H          28.0093   -1.9782   15.1067 H     762  UNL762      0.2090
   4573 O          27.8447    0.4794   19.4219 O.3   763  UNL763     -0.3982
   4574 C          27.2028   -0.4533   18.5718 C.3   763  UNL763      0.0330
   4575 H          27.9251   -0.8515   17.8548 H     763  UNL763      0.0521
   4576 H          26.3822    0.0384   18.0437 H     763  UNL763      0.0521
   4577 H          26.8052   -1.2711   19.1775 H     763  UNL763      0.0521
   4578 H          28.1869    1.1927   18.8566 H     763  UNL763      0.2090
   4579 O          27.2675   -1.0917   21.7287 O.3   764  UNL764     -0.3982
   4580 C          25.8564   -1.1009   21.8437 C.3   764  UNL764      0.0330
   4581 H          25.5545   -1.8524   22.5774 H     764  UNL764      0.0521
   4582 H          25.4122   -1.3266   20.8712 H     764  UNL764      0.0521
   4583 H          25.5206   -0.1155   22.1753 H     764  UNL764      0.0521
   4584 H          27.5358   -1.9784   21.4331 H     764  UNL764      0.2090
   4585 O          28.1659   -0.1601   25.3718 O.3   765  UNL765     -0.3982
   4586 C          26.9338   -0.3287   24.6950 C.3   765  UNL765      0.0330
   4587 H          26.8742    0.3778   23.8633 H     765  UNL765      0.0521
   4588 H          26.1086   -0.1591   25.3909 H     765  UNL765      0.0521
   4589 H          26.8776   -1.3489   24.3082 H     765  UNL765      0.0521
   4590 H          28.1869    0.7537   25.7035 H     765  UNL765      0.2090
   4591 O          26.5482   -1.1128   27.7845 O.3   766  UNL766     -0.3982
   4592 C          25.1803   -1.1007   28.1494 C.3   766  UNL766      0.0330
   4593 H          24.9835   -1.9112   28.8557 H     766  UNL766      0.0521
   4594 H          24.5629   -1.2235   27.2563 H     766  UNL766      0.0521
   4595 H          24.9471   -0.1438   28.6222 H     766  UNL766      0.0521
   4596 H          26.7251   -1.9735   27.3679 H     766  UNL766      0.2090
   4597 O          28.0800   -0.3902   31.8309 O.3   767  UNL767     -0.3982
   4598 C          27.0649   -0.2600   30.8525 C.3   767  UNL767      0.0330
   4599 H          27.3645    0.4860   30.1123 H     767  UNL767      0.0521
   4600 H          26.1313    0.0424   31.3330 H     767  UNL767      0.0521
   4601 H          26.9222   -1.2237   30.3582 H     767  UNL767      0.0521
   4602 H          28.1841    0.4800   32.2522 H     767  UNL767      0.2090
   4603 O          27.6553   -1.0238   35.2915 O.3   768  UNL768     -0.3982
   4604 C          26.2432   -1.1256   35.2919 C.3   768  UNL768      0.0330
   4605 H          25.9352   -1.9311   35.9632 H     768  UNL768      0.0521
   4606 H          25.8914   -1.3279   34.2773 H     768  UNL768      0.0521
   4607 H          25.8189   -0.1812   35.6407 H     768  UNL768      0.0521
   4608 H          28.0031   -1.8759   34.9776 H     768  UNL768      0.2090
   4609 O          27.8568    2.2683    0.0948 O.3   769  UNL769     -0.3982
   4610 C          26.4463    2.2381   -0.0235 C.3   769  UNL769      0.0330
   4611 H          26.0443    1.4371    0.6019 H     769  UNL769      0.0521
   4612 H          26.1709    2.0725   -1.0679 H     769  UNL769      0.0521
   4613 H          26.0412    3.1962    0.3103 H     769  UNL769      0.0521
   4614 H          28.1875    1.4056   -0.2084 H     769  UNL769      0.2090
   4615 O          26.6222    2.7651    3.1479 O.3   770  UNL770     -0.3982
   4616 C          25.2369    3.0164    2.9988 C.3   770  UNL770      0.0330
   4617 H          25.0824    3.7521    2.2056 H     770  UNL770      0.0521
   4618 H          24.8301    3.3903    3.9415 H     770  UNL770      0.0521
   4619 H          24.7335    2.0843    2.7315 H     770  UNL770      0.0521
   4620 H          27.0419    3.6096    3.3849 H     770  UNL770      0.2090
   4621 O          27.5900    3.6494    5.9078 O.3   771  UNL771     -0.3982
   4622 C          26.3346    3.1165    6.2880 C.3   771  UNL771      0.0330
   4623 H          26.4471    2.5369    7.2076 H     771  UNL771      0.0521
   4624 H          25.9509    2.4792    5.4877 H     771  UNL771      0.0521
   4625 H          25.6372    3.9394    6.4616 H     771  UNL771      0.0521
   4626 H          28.1873    2.8963    5.7608 H     771  UNL771      0.2090
   4627 O          26.9666    2.2049    9.8743 O.3   772  UNL772     -0.3982
   4628 C          27.3309    3.4469    9.3005 C.3   772  UNL772      0.0330
   4629 H          26.4409    3.9402    8.9019 H     772  UNL772      0.0521
   4630 H          28.0573    3.2809    8.5013 H     772  UNL772      0.0521
   4631 H          27.7791    4.0770   10.0723 H     772  UNL772      0.0521
   4632 H          26.5721    1.6678    9.1662 H     772  UNL772      0.2090
   4633 O          24.3171    2.0744   12.7668 O.3   773  UNL773     -0.3982
   4634 C          24.5957    3.3641   12.2532 C.3   773  UNL773      0.0330
   4635 H          24.5434    4.0982   13.0610 H     773  UNL773      0.0521
   4636 H          23.8704    3.6114   11.4742 H     773  UNL773      0.0521
   4637 H          25.6012    3.3668   11.8259 H     773  UNL773      0.0521
   4638 H          23.4192    2.1029   13.1389 H     773  UNL773      0.2090
   4639 O          27.5491    2.2029   15.7865 O.3   774  UNL774     -0.3982
   4640 C          26.7151    3.2575   15.3429 C.3   774  UNL774      0.0330
   4641 H          27.3223    4.0205   14.8494 H     774  UNL774      0.0521
   4642 H          26.1893    3.6912   16.1969 H     774  UNL774      0.0521
   4643 H          25.9864    2.8595   14.6329 H     774  UNL774      0.0521
   4644 H          28.1848    2.5862   16.4146 H     774  UNL774      0.2090
   4645 O          26.5712    3.0616   18.5300 O.3   775  UNL775     -0.3982
   4646 C          25.1978    3.2831   18.7935 C.3   775  UNL775      0.0330
   4647 H          24.7954    2.4430   19.3650 H     775  UNL775      0.0521
   4648 H          24.6572    3.3879   17.8497 H     775  UNL775      0.0521
   4649 H          25.0913    4.2014   19.3757 H     775  UNL775      0.0521
   4650 H          26.6340    2.2407   18.0125 H     775  UNL775      0.2090
   4651 O          26.5583    2.2136   21.4420 O.3   776  UNL776     -0.3982
   4652 C          27.2764    3.4107   21.6778 C.3   776  UNL776      0.0330
   4653 H          28.1842    3.1867   22.2435 H     776  UNL776      0.0521
   4654 H          26.6489    4.1089   22.2370 H     776  UNL776      0.0521
   4655 H          27.5484    3.8568   20.7183 H     776  UNL776      0.0521
   4656 H          26.3308    1.8410   22.3109 H     776  UNL776      0.2090
   4657 O          27.2759    3.1048   24.8055 O.3   777  UNL777     -0.3982
   4658 C          25.8883    3.2466   25.0484 C.3   777  UNL777      0.0330
   4659 H          25.4844    2.3022   25.4215 H     777  UNL777      0.0521
   4660 H          25.3827    3.5310   24.1224 H     777  UNL777      0.0521
   4661 H          25.7368    4.0268   25.7981 H     777  UNL777      0.0521
   4662 H          27.3790    2.4063   24.1368 H     777  UNL777      0.2090
   4663 O          28.1496    3.3601   27.3891 O.3   778  UNL778     -0.3982
   4664 C          27.0606    3.2013   28.2799 C.3   778  UNL778      0.0330
   4665 H          27.2245    2.3190   28.9035 H     778  UNL778      0.0521
   4666 H          26.1353    3.0907   27.7093 H     778  UNL778      0.0521
   4667 H          26.9901    4.0866   28.9162 H     778  UNL778      0.0521
   4668 H          28.1869    2.5599   26.8379 H     778  UNL778      0.2090
   4669 O          27.2746    3.0640   31.2139 O.3   779  UNL779     -0.3982
   4670 C          25.8807    2.9429   30.9973 C.3   779  UNL779      0.0330
   4671 H          25.5253    3.7989   30.4184 H     779  UNL779      0.0521
   4672 H          25.3640    2.9002   31.9592 H     779  UNL779      0.0521
   4673 H          25.6862    2.0232   30.4406 H     779  UNL779      0.0521
   4674 H          27.4162    3.8884   31.7096 H     779  UNL779      0.2090
   4675 O          27.6175    3.4480   35.1348 O.3   780  UNL780     -0.3982
   4676 C          26.2868    2.9680   35.0760 C.3   780  UNL780      0.0330
   4677 H          25.6023    3.7456   35.4240 H     780  UNL780      0.0521
   4678 H          26.1920    2.0773   35.7019 H     780  UNL780      0.0521
   4679 H          26.0472    2.7109   34.0416 H     780  UNL780      0.0521
   4680 H          27.8012    3.6678   36.0640 H     780  UNL780      0.2090
   4681 O          26.1033    5.9792   -2.0564 O.3   781  UNL781     -0.3982
   4682 C          27.3390    6.2848   -1.4366 C.3   781  UNL781      0.0330
   4683 H          27.1724    6.5067   -0.3796 H     781  UNL781      0.0521
   4684 H          27.7937    7.1453   -1.9333 H     781  UNL781      0.0521
   4685 H          28.0038    5.4224   -1.5253 H     781  UNL781      0.0521
   4686 H          25.5348    6.7624   -1.9618 H     781  UNL781      0.2090
   4687 O          27.0310    6.5889    2.1815 O.3   782  UNL782     -0.3982
   4688 C          25.6480    6.4746    1.9006 C.3   782  UNL782      0.0330
   4689 H          25.1553    5.9270    2.7079 H     782  UNL782      0.0521
   4690 H          25.5101    5.9493    0.9524 H     782  UNL782      0.0521
   4691 H          25.2167    7.4756    1.8261 H     782  UNL782      0.0521
   4692 H          27.3859    5.6856    2.2417 H     782  UNL782      0.2090
   4693 O          25.8379    6.3664    5.4108 O.3   783  UNL783     -0.3982
   4694 C          26.8769    6.5161    6.3609 C.3   783  UNL783      0.0330
   4695 H          27.8383    6.5753    5.8447 H     783  UNL783      0.0521
   4696 H          26.8708    5.6647    7.0458 H     783  UNL783      0.0521
   4697 H          26.7118    7.4365    6.9259 H     783  UNL783      0.0521
   4698 H          26.0113    5.5419    4.9254 H     783  UNL783      0.2090
   4699 O          26.6592    6.4126    9.6953 O.3   784  UNL784     -0.3982
   4700 C          25.3217    6.3698    9.2331 C.3   784  UNL784      0.0330
   4701 H          25.1099    5.3812    8.8183 H     784  UNL784      0.0521
   4702 H          25.1748    7.1366    8.4686 H     784  UNL784      0.0521
   4703 H          24.6494    6.5619   10.0726 H     784  UNL784      0.0521
   4704 H          27.2320    6.2388    8.9289 H     784  UNL784      0.2090
   4705 O          26.2375    6.6209   12.4126 O.3   785  UNL785     -0.3982
   4706 C          27.6401    6.4444   12.3352 C.3   785  UNL785      0.0330
   4707 H          27.8644    5.5613   11.7318 H     785  UNL785      0.0521
   4708 H          28.0492    6.3248   13.3414 H     785  UNL785      0.0521
   4709 H          28.0838    7.3258   11.8663 H     785  UNL785      0.0521
   4710 H          25.8720    5.8237   12.8327 H     785  UNL785      0.2090
   4711 O          26.7635    6.1701   15.5712 O.3   786  UNL786     -0.3982
   4712 C          25.3539    6.2217   15.4502 C.3   786  UNL786      0.0330
   4713 H          25.0739    7.0451   14.7885 H     786  UNL786      0.0521
   4714 H          24.9076    6.3655   16.4372 H     786  UNL786      0.0521
   4715 H          24.9989    5.2795   15.0261 H     786  UNL786      0.0521
   4716 H          27.0491    7.0190   15.9499 H     786  UNL786      0.2090
   4717 O          27.8355    6.1318   18.8672 O.3   787  UNL787     -0.3982
   4718 C          26.4788    6.2506   18.4802 C.3   787  UNL787      0.0330
   4719 H          26.3344    7.1882   17.9377 H     787  UNL787      0.0521
   4720 H          25.8425    6.2293   19.3683 H     787  UNL787      0.0521
   4721 H          26.2202    5.4120   17.8294 H     787  UNL787      0.0521
   4722 H          28.0356    6.8890   19.4435 H     787  UNL787      0.2090
   4723 O          24.1575    5.5890   21.1676 O.3   788  UNL788     -0.3982
   4724 C          24.7214    6.7968   21.6449 C.3   788  UNL788      0.0330
   4725 H          25.7033    6.5946   22.0801 H     788  UNL788      0.0521
   4726 H          24.0612    7.2360   22.3968 H     788  UNL788      0.0521
   4727 H          24.8317    7.4920   20.8094 H     788  UNL788      0.0521
   4728 H          24.0718    4.9925   21.9307 H     788  UNL788      0.2090
   4729 O          26.5677    6.4929   24.8233 O.3   789  UNL789     -0.3982
   4730 C          25.1520    6.4915   24.8359 C.3   789  UNL789      0.0330
   4731 H          24.7959    6.3464   25.8589 H     789  UNL789      0.0521
   4732 H          24.7818    5.6894   24.1928 H     789  UNL789      0.0521
   4733 H          24.7923    7.4522   24.4601 H     789  UNL789      0.0521
   4734 H          26.8573    5.6285   25.1617 H     789  UNL789      0.2090
   4735 O          27.8250    6.5402   28.2864 O.3   790  UNL790     -0.3982
   4736 C          26.4947    6.4561   27.8093 C.3   790  UNL790      0.0330
   4737 H          25.8004    6.5126   28.6513 H     790  UNL790      0.0521
   4738 H          26.3579    5.5139   27.2730 H     790  UNL790      0.0521
   4739 H          26.3077    7.2904   27.1291 H     790  UNL790      0.0521
   4740 H          27.9613    5.7876   28.8868 H     790  UNL790      0.2090
   4741 O          26.6407    6.0956   30.9918 O.3   791  UNL791     -0.3982
   4742 C          25.2593    6.2536   31.2587 C.3   791  UNL791      0.0330
   4743 H          24.7120    6.3336   30.3162 H     791  UNL791      0.0521
   4744 H          25.1040    7.1526   31.8601 H     791  UNL791      0.0521
   4745 H          24.9024    5.3817   31.8118 H     791  UNL791      0.0521
   4746 H          26.9287    6.8838   30.5005 H     791  UNL791      0.2090
   4747 O          27.7987    6.6573   34.9682 O.3   792  UNL792     -0.3982
   4748 C          26.4721    6.4352   35.4101 C.3   792  UNL792      0.0330
   4749 H          26.4485    5.5668   36.0731 H     792  UNL792      0.0521
   4750 H          25.8233    6.2660   34.5473 H     792  UNL792      0.0521
   4751 H          26.1270    7.3167   35.9554 H     792  UNL792      0.0521
   4752 H          28.0774    5.8589   34.4882 H     792  UNL792      0.2090
   4753 O          27.8781    9.5839   -0.9935 O.3   793  UNL793     -0.3982
   4754 C          26.4708    9.6731   -1.1205 C.3   793  UNL793      0.0330
   4755 H          26.0773   10.3488   -0.3570 H     793  UNL793      0.0521
   4756 H          26.0301    8.6799   -1.0055 H     793  UNL793      0.0521
   4757 H          26.2275   10.0648   -2.1109 H     793  UNL793      0.0521
   4758 H          28.0632    9.2336   -0.1055 H     793  UNL793      0.2090
   4759 O          27.7117    9.8739    3.3245 O.3   794  UNL794     -0.3982
   4760 C          26.3284    9.6681    3.1038 C.3   794  UNL794      0.0330
   4761 H          26.0436    8.6781    3.4686 H     794  UNL794      0.0521
   4762 H          26.1128    9.7505    2.0358 H     794  UNL794      0.0521
   4763 H          25.7647   10.4302    3.6470 H     794  UNL794      0.0521
   4764 H          28.1857    9.1834    2.8306 H     794  UNL794      0.2090
   4765 O          26.6773    9.6257    6.1308 O.3   795  UNL795     -0.3982
   4766 C          25.2800    9.7431    6.3262 C.3   795  UNL795      0.0330
   4767 H          24.8923    8.8166    6.7570 H     795  UNL795      0.0521
   4768 H          24.7930    9.9441    5.3690 H     795  UNL795      0.0521
   4769 H          25.0855   10.5707    7.0124 H     795  UNL795      0.0521
   4770 H          26.8188    8.8840    5.5181 H     795  UNL795      0.2090
   4771 O          26.4931    9.9560    9.0766 O.3   796  UNL796     -0.3982
   4772 C          25.1711    9.6526    9.4826 C.3   796  UNL796      0.0330
   4773 H          25.1629    8.6996   10.0175 H     796  UNL796      0.0521
   4774 H          24.5234    9.5953    8.6045 H     796  UNL796      0.0521
   4775 H          24.8128   10.4434   10.1459 H     796  UNL796      0.0521
   4776 H          26.7837    9.2373    8.4896 H     796  UNL796      0.2090
   4777 O          27.7245    9.7342   12.9264 O.3   797  UNL797     -0.3982
   4778 C          26.5229    9.6078   12.1883 C.3   797  UNL797      0.0330
   4779 H          25.6889    9.4392   12.8741 H     797  UNL797      0.0521
   4780 H          26.6093    8.7715   11.4903 H     797  UNL797      0.0521
   4781 H          26.3509   10.5302   11.6288 H     797  UNL797      0.0521
   4782 H          27.8504    8.9012   13.4121 H     797  UNL797      0.2090
   4783 O          26.2653    9.7107   15.4071 O.3   798  UNL798     -0.3982
   4784 C          24.8530    9.7459   15.4996 C.3   798  UNL798      0.0330
   4785 H          24.5525    9.6370   16.5447 H     798  UNL798      0.0521
   4786 H          24.4275    8.9369   14.9009 H     798  UNL798      0.0521
   4787 H          24.4957   10.7053   15.1181 H     798  UNL798      0.0521
   4788 H          26.5529    8.8484   15.7526 H     798  UNL798      0.2090
   4789 O          27.8686    9.3948   18.7644 O.3   799  UNL799     -0.3982
   4790 C          26.4860    9.6968   18.7246 C.3   799  UNL799      0.0330
   4791 H          25.9231    8.8962   19.2107 H     799  UNL799      0.0521
   4792 H          26.1652    9.8032   17.6854 H     799  UNL799      0.0521
   4793 H          26.3120   10.6358   19.2553 H     799  UNL799      0.0521
   4794 H          27.9921    8.5573   18.2859 H     799  UNL799      0.2090
   4795 O          26.1041    9.9218   21.6890 O.3   800  UNL800     -0.3982
   4796 C          27.1747    8.9959   21.6564 C.3   800  UNL800      0.0330
   4797 H          27.2909    8.5370   22.6414 H     800  UNL800      0.0521
   4798 H          28.0951    9.5117   21.3721 H     800  UNL800      0.0521
   4799 H          26.9517    8.2206   20.9196 H     800  UNL800      0.0521
   4800 H          26.3305   10.5971   22.3510 H     800  UNL800      0.2090
   4801 O          27.8327    9.7918   24.7788 O.3   801  UNL801     -0.3982
   4802 C          26.4483    9.5905   24.9963 C.3   801  UNL801      0.0330
   4803 H          26.3047    8.7579   25.6895 H     801  UNL801      0.0521
   4804 H          25.9565    9.3752   24.0446 H     801  UNL801      0.0521
   4805 H          26.0206   10.4987   25.4276 H     801  UNL801      0.0521
   4806 H          28.1842    8.9700   24.3960 H     801  UNL801      0.2090
   4807 O          26.5692    9.7245   27.9340 O.3   802  UNL802     -0.3982
   4808 C          25.1536    9.7225   27.9155 C.3   802  UNL802      0.0330
   4809 H          24.7747    9.8085   28.9369 H     802  UNL802      0.0521
   4810 H          24.7956    8.7962   27.4595 H     802  UNL802      0.0521
   4811 H          24.8048   10.5743   27.3269 H     802  UNL802      0.0521
   4812 H          26.8491    8.9581   28.4631 H     802  UNL802      0.2090
   4813 O          26.3623    9.2370   31.3622 O.3   803  UNL803     -0.3982
   4814 C          27.6237    9.7127   30.9299 C.3   803  UNL803      0.0330
   4815 H          28.1754    8.9007   30.4497 H     803  UNL803      0.0521
   4816 H          28.1848   10.0914   31.7876 H     803  UNL803      0.0521
   4817 H          27.4712   10.5214   30.2113 H     803  UNL803      0.0521
   4818 H          26.5297    8.5209   31.9984 H     803  UNL803      0.2090
   4819 O          26.7552    9.8232   34.2611 O.3   804  UNL804     -0.3982
   4820 C          25.3544    9.6838   34.1103 C.3   804  UNL804      0.0330
   4821 H          24.8695    9.7936   35.0835 H     804  UNL804      0.0521
   4822 H          25.1285    8.7019   33.6875 H     804  UNL804      0.0521
   4823 H          24.9906   10.4614   33.4346 H     804  UNL804      0.0521
   4824 H          27.0489    9.1202   34.8653 H     804  UNL804      0.2090
   4825 O          26.4578   13.2236   -0.1296 O.3   805  UNL805     -0.3982
   4826 C          26.5449   12.9168   -1.5090 C.3   805  UNL805      0.0330
   4827 H          25.5848   12.5287   -1.8582 H     805  UNL805      0.0521
   4828 H          27.3302   12.1740   -1.6691 H     805  UNL805      0.0521
   4829 H          26.7898   13.8274   -2.0607 H     805  UNL805      0.0521
   4830 H          26.2396   12.3970    0.3337 H     805  UNL805      0.2090
   4831 O          26.6761   12.8383    2.9880 O.3   806  UNL806     -0.3982
   4832 C          25.2670   12.9651    2.9333 C.3   806  UNL806      0.0330
   4833 H          24.9043   13.4134    3.8616 H     806  UNL806      0.0521
   4834 H          24.8169   11.9795    2.7919 H     806  UNL806      0.0521
   4835 H          25.0006   13.6090    2.0919 H     806  UNL806      0.0521
   4836 H          26.8820   12.2621    3.7437 H     806  UNL806      0.2090
   4837 O          27.3990   12.0226    6.1016 O.3   807  UNL807     -0.3982
   4838 C          26.3447   12.9539    6.2620 C.3   807  UNL807      0.0330
   4839 H          26.1650   13.4689    5.3150 H     807  UNL807      0.0521
   4840 H          26.6106   13.6766    7.0373 H     807  UNL807      0.0521
   4841 H          25.4403   12.4188    6.5606 H     807  UNL807      0.0521
   4842 H          28.1874   12.5264    5.8369 H     807  UNL807      0.2090
   4843 O          26.7198   12.8875    9.6545 O.3   808  UNL808     -0.3982
   4844 C          25.3346   12.7791    9.3826 C.3   808  UNL808      0.0330
   4845 H          25.1717   12.0211    8.6125 H     808  UNL808      0.0521
   4846 H          24.9520   13.7453    9.0447 H     808  UNL808      0.0521
   4847 H          24.8150   12.4837   10.2972 H     808  UNL808      0.0521
   4848 H          27.1540   13.1507    8.8252 H     808  UNL808      0.2090
   4849 O          26.3099   12.7244   12.4278 O.3   809  UNL809     -0.3982
   4850 C          27.7195   12.7242   12.2954 C.3   809  UNL809      0.0330
   4851 H          28.1785   12.5773   13.2763 H     809  UNL809      0.0521
   4852 H          28.0463   13.6748   11.8670 H     809  UNL809      0.0521
   4853 H          28.0140   11.9077   11.6319 H     809  UNL809      0.0521
   4854 H          26.0788   13.4590   13.0215 H     809  UNL809      0.2090
   4855 O          26.7624   12.9731   15.3978 O.3   810  UNL810     -0.3982
   4856 C          25.3686   12.9932   15.6452 C.3   810  UNL810      0.0330
   4857 H          25.1168   12.2240   16.3795 H     810  UNL810      0.0521
   4858 H          24.8294   12.8119   14.7122 H     810  UNL810      0.0521
   4859 H          25.0917   13.9740   16.0387 H     810  UNL810      0.0521
   4860 H          26.9781   12.0911   15.0496 H     810  UNL810      0.2090
   4861 O          28.1873   12.4577   19.5419 O.3   811  UNL811     -0.3982
   4862 C          27.5895   12.7881   18.3018 C.3   811  UNL811      0.0330
   4863 H          28.0720   13.6775   17.8891 H     811  UNL811      0.0521
   4864 H          26.5228   12.9742   18.4487 H     811  UNL811      0.0521
   4865 H          27.7194   11.9519   17.6108 H     811  UNL811      0.0521
   4866 H          28.0561   13.2179   20.1339 H     811  UNL811      0.2090
   4867 O          24.5124   13.1691   20.6100 O.3   812  UNL812     -0.3982
   4868 C          24.8094   12.8538   21.9579 C.3   812  UNL812      0.0330
   4869 H          24.2612   11.9553   22.2522 H     812  UNL812      0.0521
   4870 H          24.5275   13.6921   22.5997 H     812  UNL812      0.0521
   4871 H          25.8823   12.6706   22.0519 H     812  UNL812      0.0521
   4872 H          23.5543   13.3264   20.5578 H     812  UNL812      0.2090
   4873 O          26.2697   13.2110   24.5651 O.3   813  UNL813     -0.3982
   4874 C          27.6356   12.8992   24.3616 C.3   813  UNL813      0.0330
   4875 H          27.7176   11.9564   23.8150 H     813  UNL813      0.0521
   4876 H          28.1395   12.8176   25.3277 H     813  UNL813      0.0521
   4877 H          28.0992   13.6979   23.7777 H     813  UNL813      0.0521
   4878 H          25.8854   12.4851   25.0856 H     813  UNL813      0.2090
   4879 O          27.8526   12.7046   27.8290 O.3   814  UNL814     -0.3982
   4880 C          26.4690   12.6825   28.1285 C.3   814  UNL814      0.0330
   4881 H          26.2658   11.8948   28.8582 H     814  UNL814      0.0521
   4882 H          25.9001   12.5018   27.2133 H     814  UNL814      0.0521
   4883 H          26.1811   13.6489   28.5491 H     814  UNL814      0.0521
   4884 H          28.0784   11.8347   27.4578 H     814  UNL814      0.2090
   4885 O          26.3441   12.9930   31.2378 O.3   815  UNL815     -0.3982
   4886 C          24.9612   12.8349   30.9790 C.3   815  UNL815      0.0330
   4887 H          24.4100   12.8397   31.9226 H     815  UNL815      0.0521
   4888 H          24.7938   11.8925   30.4517 H     815  UNL815      0.0521
   4889 H          24.6193   13.6644   30.3556 H     815  UNL815      0.0521
   4890 H          26.6186   12.2429   31.7924 H     815  UNL815      0.2090
   4891 O          26.6394   12.7316   34.9721 O.3   816  UNL816     -0.3982
   4892 C          25.2425   12.9028   35.1268 C.3   816  UNL816      0.0330
   4893 H          25.0489   13.7723   35.7597 H     816  UNL816      0.0521
   4894 H          24.8127   12.0061   35.5797 H     816  UNL816      0.0521
   4895 H          24.7932   13.0630   34.1439 H     816  UNL816      0.0521
   4896 H          27.0102   12.5916   35.8601 H     816  UNL816      0.2090
   4897 O          27.2431   16.3668   -1.0129 O.3   817  UNL817     -0.3982
   4898 C          25.8376   16.2041   -1.0629 C.3   817  UNL817      0.0330
   4899 H          25.5004   15.6654   -0.1738 H     817  UNL817      0.0521
   4900 H          25.5661   15.6483   -1.9636 H     817  UNL817      0.0521
   4901 H          25.3666   17.1895   -1.0896 H     817  UNL817      0.0521
   4902 H          27.6332   15.4764   -0.9901 H     817  UNL817      0.2090
   4903 O          27.3821   16.9391    2.9277 O.3   818  UNL818     -0.3982
   4904 C          26.7239   15.9570    2.1487 C.3   818  UNL818      0.0330
   4905 H          26.4610   15.1052    2.7809 H     818  UNL818      0.0521
   4906 H          27.3809   15.6334    1.3377 H     818  UNL818      0.0521
   4907 H          25.8137   16.3894    1.7267 H     818  UNL818      0.0521
   4908 H          28.1852   16.5264    3.2886 H     818  UNL818      0.2090
   4909 O          27.2401   16.5886    6.4505 O.3   819  UNL819     -0.3982
   4910 C          26.0598   16.1242    5.8213 C.3   819  UNL819      0.0330
   4911 H          25.5178   15.4642    6.5032 H     819  UNL819      0.0521
   4912 H          26.3209   15.5859    4.9070 H     819  UNL819      0.0521
   4913 H          25.4304   16.9811    5.5700 H     819  UNL819      0.0521
   4914 H          27.7780   15.8065    6.6615 H     819  UNL819      0.2090
   4915 O          27.5170   15.9909    9.6506 O.3   820  UNL820     -0.3982
   4916 C          26.2211   15.9664    9.0810 C.3   820  UNL820      0.0330
   4917 H          26.0276   16.9142    8.5725 H     820  UNL820      0.0521
   4918 H          25.4797   15.8044    9.8672 H     820  UNL820      0.0521
   4919 H          26.1663   15.1495    8.3576 H     820  UNL820      0.0521
   4920 H          27.5353   16.7252   10.2877 H     820  UNL820      0.2090
   4921 O          26.1728   16.0714   12.3054 O.3   821  UNL821     -0.3982
   4922 C          24.7923   16.2711   12.5479 C.3   821  UNL821      0.0330
   4923 H          24.4061   15.4506   13.1577 H     821  UNL821      0.0521
   4924 H          24.2570   16.3153   11.5963 H     821  UNL821      0.0521
   4925 H          24.6583   17.2142   13.0829 H     821  UNL821      0.0521
   4926 H          26.2603   15.2278   11.8298 H     821  UNL821      0.2090
   4927 O          27.9117   16.5373   14.8294 O.3   822  UNL822     -0.3982
   4928 C          27.0731   16.0033   15.8374 C.3   822  UNL822      0.0330
   4929 H          27.6294   15.2676   16.4236 H     822  UNL822      0.0521
   4930 H          26.2012   15.5333   15.3760 H     822  UNL822      0.0521
   4931 H          26.7438   16.8137   16.4919 H     822  UNL822      0.0521
   4932 H          28.1878   15.7953   14.2648 H     822  UNL822      0.2090
   4933 O          26.3620   15.9517   18.7860 O.3   823  UNL823     -0.3982
   4934 C          24.9736   15.9658   18.5090 C.3   823  UNL823      0.0330
   4935 H          24.7204   16.8745   17.9571 H     823  UNL823      0.0521
   4936 H          24.4137   15.9282   19.4466 H     823  UNL823      0.0521
   4937 H          24.7234   15.0922   17.9026 H     823  UNL823      0.0521
   4938 H          26.5538   16.7380   19.3250 H     823  UNL823      0.2090
   4939 O          26.1370   15.4946   21.6106 O.3   824  UNL824     -0.3982
   4940 C          27.4435   15.9656   21.8857 C.3   824  UNL824      0.0330
   4941 H          27.3943   16.7675   22.6265 H     824  UNL824      0.0521
   4942 H          27.9004   16.3340   20.9640 H     824  UNL824      0.0521
   4943 H          28.0418   15.1421   22.2825 H     824  UNL824      0.0521
   4944 H          25.6300   16.2467   21.2602 H     824  UNL824      0.2090
   4945 O          27.4287   16.2815   25.0411 O.3   825  UNL825     -0.3982
   4946 C          26.0322   16.0789   24.9259 C.3   825  UNL825      0.0330
   4947 H          25.7450   15.1865   25.4876 H     825  UNL825      0.0521
   4948 H          25.7659   15.9609   23.8727 H     825  UNL825      0.0521
   4949 H          25.5121   16.9478   25.3359 H     825  UNL825      0.0521
   4950 H          27.8631   15.4949   24.6695 H     825  UNL825      0.2090
   4951 O          26.5114   16.3669   27.7471 O.3   826  UNL826     -0.3982
   4952 C          25.1304   16.1786   27.9956 C.3   826  UNL826      0.0330
   4953 H          24.9576   16.1213   29.0732 H     826  UNL826      0.0521
   4954 H          24.7946   15.2577   27.5126 H     826  UNL826      0.0521
   4955 H          24.5766   17.0259   27.5845 H     826  UNL826      0.0521
   4956 H          26.9765   15.6001   28.1229 H     826  UNL826      0.2090
   4957 O          26.1488   16.1304   31.4021 O.3   827  UNL827     -0.3982
   4958 C          27.4749   16.0956   30.9074 C.3   827  UNL827      0.0330
   4959 H          27.6841   15.1066   30.4923 H     827  UNL827      0.0521
   4960 H          28.1731   16.3173   31.7183 H     827  UNL827      0.0521
   4961 H          27.5811   16.8478   30.1223 H     827  UNL827      0.0521
   4962 H          26.0851   15.4528   32.0967 H     827  UNL827      0.2090
   4963 O          27.6533   16.4430   35.8606 O.3   828  UNL828     -0.3982
   4964 C          26.9613   16.1626   34.6576 C.3   828  UNL828      0.0330
   4965 H          26.3144   15.2938   34.8022 H     828  UNL828      0.0521
   4966 H          27.6813   15.9654   33.8596 H     828  UNL828      0.0521
   4967 H          26.3509   17.0280   34.3889 H     828  UNL828      0.0521
   4968 H          28.1859   15.6577   36.0734 H     828  UNL828      0.2090
   4969 O          26.5603   19.4437    0.1230 O.3   829  UNL829     -0.3982
   4970 C          25.1585   19.5028   -0.0661 C.3   829  UNL829      0.0330
   4971 H          24.6638   18.8573    0.6639 H     829  UNL829      0.0521
   4972 H          24.9128   19.1788   -1.0804 H     829  UNL829      0.0521
   4973 H          24.8239   20.5330    0.0760 H     829  UNL829      0.0521
   4974 H          26.8277   18.5182   -0.0093 H     829  UNL829      0.2090
   4975 O          24.4448   18.8604    3.3112 O.3   830  UNL830     -0.3982
   4976 C          25.5705   19.5990    2.8733 C.3   830  UNL830      0.0330
   4977 H          26.2867   18.9251    2.3967 H     830  UNL830      0.0521
   4978 H          26.0354   20.0969    3.7277 H     830  UNL830      0.0521
   4979 H          25.2435   20.3500    2.1504 H     830  UNL830      0.0521
   4980 H          24.7660   18.2024    3.9510 H     830  UNL830      0.2090
   4981 O          27.3033   20.1196    6.4447 O.3   831  UNL831     -0.3982
   4982 C          26.2543   19.2517    6.0563 C.3   831  UNL831      0.0330
   4983 H          25.9458   18.6457    6.9119 H     831  UNL831      0.0521
   4984 H          26.5962   18.6063    5.2435 H     831  UNL831      0.0521
   4985 H          25.4074   19.8498    5.7120 H     831  UNL831      0.0521
   4986 H          28.0401   19.5606    6.7451 H     831  UNL831      0.2090
   4987 O          27.1530   19.2188    9.0985 O.3   832  UNL832     -0.3982
   4988 C          25.7690   19.4968    9.2073 C.3   832  UNL832      0.0330
   4989 H          25.5642   19.9577   10.1769 H     832  UNL832      0.0521
   4990 H          25.2010   18.5689    9.1057 H     832  UNL832      0.0521
   4991 H          25.4814   20.1867    8.4104 H     832  UNL832      0.0521
   4992 H          27.3785   18.6048    9.8180 H     832  UNL832      0.2090
   4993 O          27.7133   19.6104   12.4485 O.3   833  UNL833     -0.3982
   4994 C          26.4336   19.0170   12.5689 C.3   833  UNL833      0.0330
   4995 H          26.1976   18.4685   11.6536 H     833  UNL833      0.0521
   4996 H          25.6856   19.7941   12.7438 H     833  UNL833      0.0521
   4997 H          26.4410   18.3248   13.4142 H     833  UNL833      0.0521
   4998 H          27.6759   20.2189   11.6909 H     833  UNL833      0.2090
   4999 O          27.0679   19.4289   15.4099 O.3   834  UNL834     -0.3982
   5000 C          25.6525   19.4520   15.4355 C.3   834  UNL834      0.0330
   5001 H          25.3097   19.7326   16.4345 H     834  UNL834      0.0521
   5002 H          25.2663   18.4649   15.1700 H     834  UNL834      0.0521
   5003 H          25.2960   20.1873   14.7103 H     834  UNL834      0.0521
   5004 H          27.3547   18.7679   16.0629 H     834  UNL834      0.2090
   5005 O          27.8604   19.1017   18.5081 O.3   835  UNL835     -0.3982
   5006 C          26.4461   19.1397   18.5600 C.3   835  UNL835      0.0330
   5007 H          26.0975   20.1402   18.2924 H     835  UNL835      0.0521
   5008 H          26.1106   18.8827   19.5677 H     835  UNL835      0.0521
   5009 H          26.0448   18.4140   17.8487 H     835  UNL835      0.0521
   5010 H          28.1875   19.7554   19.1493 H     835  UNL835      0.2090
   5011 O          25.8574   18.7810   21.7924 O.3   836  UNL836     -0.3982
   5012 C          27.1606   19.3315   21.7352 C.3   836  UNL836      0.0330
   5013 H          27.3888   19.8290   22.6811 H     836  UNL836      0.0521
   5014 H          27.2189   20.0471   20.9115 H     836  UNL836      0.0521
   5015 H          27.8794   18.5262   21.5669 H     836  UNL836      0.0521
   5016 H          25.2420   19.5188   21.9424 H     836  UNL836      0.2090
   5017 O          26.6465   19.0874   24.9701 O.3   837  UNL837     -0.3982
   5018 C          25.3050   19.5375   25.0172 C.3   837  UNL837      0.0330
   5019 H          24.6419   18.6903   25.2094 H     837  UNL837      0.0521
   5020 H          25.0445   20.0095   24.0667 H     837  UNL837      0.0521
   5021 H          25.2032   20.2673   25.8238 H     837  UNL837      0.0521
   5022 H          26.7059   18.4417   24.2455 H     837  UNL837      0.2090
   5023 O          27.7785   19.2791   27.6172 O.3   838  UNL838     -0.3982
   5024 C          26.4858   19.1563   28.1815 C.3   838  UNL838      0.0330
   5025 H          26.5043   18.4076   28.9774 H     838  UNL838      0.0521
   5026 H          25.7751   18.8614   27.4057 H     838  UNL838      0.0521
   5027 H          26.1871   20.1209   28.5986 H     838  UNL838      0.0521
   5028 H          28.0162   18.4084   27.2555 H     838  UNL838      0.2090
   5029 O          26.6740   19.4397   31.1539 O.3   839  UNL839     -0.3982
   5030 C          25.2662   19.4767   31.0081 C.3   839  UNL839      0.0330
   5031 H          24.7982   19.5316   31.9942 H     839  UNL839      0.0521
   5032 H          24.9297   18.5797   30.4827 H     839  UNL839      0.0521
   5033 H          24.9922   20.3607   30.4275 H     839  UNL839      0.0521
   5034 H          26.8867   18.6453   31.6727 H     839  UNL839      0.2090
   5035 O          27.8714   19.4588   35.2890 O.3   840  UNL840     -0.3982
   5036 C          26.4564   19.4677   35.3363 C.3   840  UNL840      0.0330
   5037 H          26.1010   18.5492   35.8100 H     840  UNL840      0.0521
   5038 H          26.0575   19.5451   34.3219 H     840  UNL840      0.0521
   5039 H          26.1259   20.3286   35.9221 H     840  UNL840      0.0521
   5040 H          28.1348   18.6844   34.7631 H     840  UNL840      0.2090
   5041 O          28.0533   22.8164   -1.0995 O.3   841  UNL841     -0.3982
   5042 C          26.6887   22.4607   -0.9739 C.3   841  UNL841      0.0330
   5043 H          26.4499   21.6702   -1.6897 H     841  UNL841      0.0521
   5044 H          26.0640   23.3374   -1.1612 H     841  UNL841      0.0521
   5045 H          26.5081   22.0974    0.0405 H     841  UNL841      0.0521
   5046 H          28.1830   23.1348   -2.0091 H     841  UNL841      0.2090
   5047 O          26.9716   22.7119    3.0877 O.3   842  UNL842     -0.3982
   5048 C          25.5565   22.7374    3.1227 C.3   842  UNL842      0.0330
   5049 H          25.1951   21.9884    3.8317 H     842  UNL842      0.0521
   5050 H          25.1627   22.5299    2.1248 H     842  UNL842      0.0521
   5051 H          25.2268   23.7284    3.4434 H     842  UNL842      0.0521
   5052 H          27.2343   21.8209    2.8000 H     842  UNL842      0.2090
   5053 O          27.8588   23.7684    5.9932 O.3   843  UNL843     -0.3982
   5054 C          26.4467   23.7900    6.0939 C.3   843  UNL843      0.0330
   5055 H          26.1567   24.1477    7.0850 H     843  UNL843      0.0521
   5056 H          26.0533   22.7841    5.9283 H     843  UNL843      0.0521
   5057 H          26.0466   24.4651    5.3338 H     843  UNL843      0.0521
   5058 H          28.1849   23.1616    6.6794 H     843  UNL843      0.2090
   5059 O          26.6760   22.6643    9.2783 O.3   844  UNL844     -0.3982
   5060 C          25.2674   22.7401    9.3993 C.3   844  UNL844      0.0330
   5061 H          24.9072   21.9038   10.0035 H     844  UNL844      0.0521
   5062 H          24.8132   22.7082    8.4060 H     844  UNL844      0.0521
   5063 H          25.0030   23.6806    9.8884 H     844  UNL844      0.0521
   5064 H          26.8801   21.8200    8.8412 H     844  UNL844      0.2090
   5065 O          26.0939   21.9713   12.3981 O.3   845  UNL845     -0.3982
   5066 C          27.3537   22.6099   12.4965 C.3   845  UNL845      0.0330
   5067 H          27.2808   23.4579   13.1820 H     845  UNL845      0.0521
   5068 H          27.6674   22.9530   11.5076 H     845  UNL845      0.0521
   5069 H          28.0852   21.8953   12.8808 H     845  UNL845      0.0521
   5070 H          25.4660   22.6296   12.0547 H     845  UNL845      0.2090
   5071 O          27.8375   22.4949   15.3246 O.3   846  UNL846     -0.3982
   5072 C          26.4618   22.4155   15.6494 C.3   846  UNL846      0.0330
   5073 H          26.3196   21.7025   16.4654 H     846  UNL846      0.0521
   5074 H          25.8967   22.0966   14.7702 H     846  UNL846      0.0521
   5075 H          26.1138   23.4017   15.9654 H     846  UNL846      0.0521
   5076 H          28.1176   21.6057   15.0481 H     846  UNL846      0.2090
   5077 O          25.8536   23.0826   18.5588 O.3   847  UNL847     -0.3982
   5078 C          24.5219   22.6184   18.4338 C.3   847  UNL847      0.0330
   5079 H          24.2916   21.9421   19.2608 H     847  UNL847      0.0521
   5080 H          24.4045   22.0981   17.4801 H     847  UNL847      0.0521
   5081 H          23.8430   23.4738   18.4657 H     847  UNL847      0.0521
   5082 H          26.4324   22.3019   18.5271 H     847  UNL847      0.2090
   5083 O          27.5656   22.5597   22.1497 O.3   848  UNL848     -0.3982
   5084 C          26.2514   22.3364   21.6727 C.3   848  UNL848      0.0330
   5085 H          26.2951   21.9216   20.6626 H     848  UNL848      0.0521
   5086 H          25.6998   23.2796   21.6672 H     848  UNL848      0.0521
   5087 H          25.7490   21.6269   22.3343 H     848  UNL848      0.0521
   5088 H          27.9861   23.1927   21.5431 H     848  UNL848      0.2090
   5089 O          26.8296   21.9333   24.6556 O.3   849  UNL849     -0.3982
   5090 C          25.7240   22.8111   24.7629 C.3   849  UNL849      0.0330
   5091 H          26.0071   23.6845   25.3557 H     849  UNL849      0.0521
   5092 H          24.8890   22.2903   25.2378 H     849  UNL849      0.0521
   5093 H          25.4276   23.1334   23.7620 H     849  UNL849      0.0521
   5094 H          27.0697   21.6644   25.5587 H     849  UNL849      0.2090
   5095 O          27.0615   22.7798   28.0259 O.3   850  UNL850     -0.3982
   5096 C          25.6530   22.7021   27.9059 C.3   850  UNL850      0.0330
   5097 H          25.2039   22.6498   28.9008 H     850  UNL850      0.0521
   5098 H          25.3842   21.8157   27.3261 H     850  UNL850      0.0521
   5099 H          25.2904   23.5950   27.3913 H     850  UNL850      0.0521
   5100 H          27.3540   21.9745   28.4859 H     850  UNL850      0.2090
   5101 O          28.1513   22.8304   31.1174 O.3   851  UNL851     -0.3982
   5102 C          26.8111   22.4073   31.2888 C.3   851  UNL851      0.0330
   5103 H          26.4939   21.8352   30.4133 H     851  UNL851      0.0521
   5104 H          26.1666   23.2799   31.4202 H     851  UNL851      0.0521
   5105 H          26.7492   21.7743   32.1770 H     851  UNL851      0.0521
   5106 H          28.1749   23.3898   30.3224 H     851  UNL851      0.2090
   5107 O          24.2683   22.7094   35.2351 O.3   852  UNL852     -0.3982
   5108 C          24.7317   22.7223   33.8974 C.3   852  UNL852      0.0330
   5109 H          24.3478   21.8459   33.3694 H     852  UNL852      0.0521
   5110 H          25.8243   22.7163   33.8893 H     852  UNL852      0.0521
   5111 H          24.3709   23.6285   33.4051 H     852  UNL852      0.0521
   5112 H          24.6040   21.8945   35.6459 H     852  UNL852      0.2090
   5113 O          27.3032   25.5982   -2.0983 O.3   853  UNL853     -0.3982
   5114 C          26.6026   26.0780   -0.9654 C.3   853  UNL853      0.0330
   5115 H          27.1411   26.9259   -0.5349 H     853  UNL853      0.0521
   5116 H          26.5112   25.2779   -0.2268 H     853  UNL853      0.0521
   5117 H          25.6058   26.4011   -1.2745 H     853  UNL853      0.0521
   5118 H          28.1831   25.3190   -1.7930 H     853  UNL853      0.2090
   5119 O          26.5533   27.5374    1.9073 O.3   854  UNL854     -0.3982
   5120 C          25.2282   27.0392    1.8906 C.3   854  UNL854      0.0330
   5121 H          24.8789   26.8958    2.9162 H     854  UNL854      0.0521
   5122 H          25.2015   26.0904    1.3492 H     854  UNL854      0.0521
   5123 H          24.5831   27.7623    1.3861 H     854  UNL854      0.0521
   5124 H          27.1019   26.8749    2.3608 H     854  UNL854      0.2090
   5125 O          26.8361   26.8723    5.0194 O.3   855  UNL855     -0.3982
   5126 C          25.8616   27.1906    5.9959 C.3   855  UNL855      0.0330
   5127 H          25.4920   26.2711    6.4565 H     855  UNL855      0.0521
   5128 H          25.0371   27.7324    5.5261 H     855  UNL855      0.0521
   5129 H          26.3191   27.8209    6.7621 H     855  UNL855      0.0521
   5130 H          26.4011   26.3129    4.3535 H     855  UNL855      0.2090
   5131 O          28.1883   26.0640    9.7279 O.3   856  UNL856     -0.3982
   5132 C          27.3139   27.1499    9.4815 C.3   856  UNL856      0.0330
   5133 H          26.3029   26.7728    9.3084 H     856  UNL856      0.0521
   5134 H          27.6609   27.7073    8.6080 H     856  UNL856      0.0521
   5135 H          27.3106   27.8083   10.3533 H     856  UNL856      0.0521
   5136 H          28.1703   25.4977    8.9376 H     856  UNL856      0.2090
   5137 O          26.6532   25.6828   12.1381 O.3   857  UNL857     -0.3982
   5138 C          25.2550   25.6812   12.3607 C.3   857  UNL857      0.0330
   5139 H          24.7599   26.2622   11.5786 H     857  UNL857      0.0521
   5140 H          25.0408   26.1133   13.3412 H     857  UNL857      0.0521
   5141 H          24.8917   24.6513   12.3317 H     857  UNL857      0.0521
   5142 H          26.9464   26.6093   12.1696 H     857  UNL857      0.2090
   5143 O          28.1379   25.8431   15.8336 O.3   858  UNL858     -0.3982
   5144 C          26.8097   26.0112   15.3729 C.3   858  UNL858      0.0330
   5145 H          26.1204   25.9623   16.2196 H     858  UNL858      0.0521
   5146 H          26.5720   25.2272   14.6499 H     858  UNL858      0.0521
   5147 H          26.7220   26.9875   14.8904 H     858  UNL858      0.0521
   5148 H          28.1850   24.9688   16.2566 H     858  UNL858      0.2090
   5149 O          26.6831   25.7484   18.7342 O.3   859  UNL859     -0.3982
   5150 C          26.8894   27.1428   18.6019 C.3   859  UNL859      0.0330
   5151 H          26.5788   27.6468   19.5205 H     859  UNL859      0.0521
   5152 H          26.3115   27.5187   17.7542 H     859  UNL859      0.0521
   5153 H          27.9516   27.3299   18.4276 H     859  UNL859      0.0521
   5154 H          25.7325   25.6135   18.8879 H     859  UNL859      0.2090
   5155 O          26.6644   25.8142   21.9485 O.3   860  UNL860     -0.3982
   5156 C          25.2995   26.0142   21.6300 C.3   860  UNL860      0.0330
   5157 H          24.7095   26.0381   22.5496 H     860  UNL860      0.0521
   5158 H          24.9531   25.2047   20.9830 H     860  UNL860      0.0521
   5159 H          25.1928   26.9672   21.1064 H     860  UNL860      0.0521
   5160 H          26.7277   24.9617   22.4119 H     860  UNL860      0.2090
   5161 O          26.8874   26.0860   25.1644 O.3   861  UNL861     -0.3982
   5162 C          27.1871   27.3929   24.7098 C.3   861  UNL861      0.0330
   5163 H          27.3308   28.0542   25.5679 H     861  UNL861      0.0521
   5164 H          26.3679   27.7597   24.0867 H     861  UNL861      0.0521
   5165 H          28.1055   27.3617   24.1189 H     861  UNL861      0.0521
   5166 H          26.0683   26.1455   25.6851 H     861  UNL861      0.2090
   5167 O          27.8636   27.3930   28.1790 O.3   862  UNL862     -0.3982
   5168 C          26.4484   27.3805   28.1405 C.3   862  UNL862      0.0330
   5169 H          26.0972   26.3642   27.9453 H     862  UNL862      0.0521
   5170 H          26.0984   28.0554   27.3557 H     862  UNL862      0.0521
   5171 H          26.0637   27.7174   29.1060 H     862  UNL862      0.0521
   5172 H          28.1757   27.0896   27.3095 H     862  UNL862      0.2090
   5173 O          26.6693   25.8991   31.2530 O.3   863  UNL863     -0.3982
   5174 C          25.2555   25.9628   31.2148 C.3   863  UNL863      0.0330
   5175 H          24.8378   25.0065   31.5395 H     863  UNL863      0.0521
   5176 H          24.9274   26.1891   30.1974 H     863  UNL863      0.0521
   5177 H          24.9171   26.7533   31.8887 H     863  UNL863      0.0521
   5178 H          26.9398   25.1894   30.6457 H     863  UNL863      0.2090
   5179 O          27.6775   26.8020   35.2892 O.3   864  UNL864     -0.3982
   5180 C          26.2803   27.0303   35.2892 C.3   864  UNL864      0.0330
   5181 H          25.7957   26.3303   35.9744 H     864  UNL864      0.0521
   5182 H          25.8885   26.8971   34.2779 H     864  UNL864      0.0521
   5183 H          26.0875   28.0534   35.6204 H     864  UNL864      0.0521
   5184 H          27.8175   25.8870   34.9912 H     864  UNL864      0.2090
@<TRIPOS>BOND
     1     1     2    1
     2     1     6    1
     3     2     3    1
     4     2     4    1
     5     2     5    1
     6     7     8    1
     7     7    12    1
     8     8     9    1
     9     8    10    1
    10     8    11    1
    11    13    14    1
    12    13    18    1
    13    14    15    1
    14    14    16    1
    15    14    17    1
    16    19    20    1
    17    19    24    1
    18    20    21    1
    19    20    22    1
    20    20    23    1
    21    25    26    1
    22    25    30    1
    23    26    27    1
    24    26    28    1
    25    26    29    1
    26    31    32    1
    27    31    36    1
    28    32    33    1
    29    32    34    1
    30    32    35    1
    31    37    38    1
    32    37    42    1
    33    38    39    1
    34    38    40    1
    35    38    41    1
    36    43    44    1
    37    43    48    1
    38    44    45    1
    39    44    46    1
    40    44    47    1
    41    49    50    1
    42    49    54    1
    43    50    51    1
    44    50    52    1
    45    50    53    1
    46    55    56    1
    47    55    60    1
    48    56    57    1
    49    56    58    1
    50    56    59    1
    51    61    62    1
    52    61    66    1
    53    62    63    1
    54    62    64    1
    55    62    65    1
    56    67    68    1
    57    67    72    1
    58    68    69    1
    59    68    70    1
    60    68    71    1
    61    73    74    1
    62    73    78    1
    63    74    75    1
    64    74    76    1
    65    74    77    1
    66    79    80    1
    67    79    84    1
    68    80    81    1
    69    80    82    1
    70    80    83    1
    71    85    86    1
    72    85    90    1
    73    86    87    1
    74    86    88    1
    75    86    89    1
    76    91    92    1
    77    91    96    1
    78    92    93    1
    79    92    94    1
    80    92    95    1
    81    97    98    1
    82    97   102    1
    83    98    99    1
    84    98   100    1
    85    98   101    1
    86   103   104    1
    87   103   108    1
    88   104   105    1
    89   104   106    1
    90   104   107    1
    91   109   110    1
    92   109   114    1
    93   110   111    1
    94   110   112    1
    95   110   113    1
    96   115   116    1
    97   115   120    1
    98   116   117    1
    99   116   118    1
   100   116   119    1
   101   121   122    1
   102   121   126    1
   103   122   123    1
   104   122   124    1
   105   122   125    1
   106   127   128    1
   107   127   132    1
   108   128   129    1
   109   128   130    1
   110   128   131    1
   111   133   134    1
   112   133   138    1
   113   134   135    1
   114   134   136    1
   115   134   137    1
   116   139   140    1
   117   139   144    1
   118   140   141    1
   119   140   142    1
   120   140   143    1
   121   145   146    1
   122   145   150    1
   123   146   147    1
   124   146   148    1
   125   146   149    1
   126   151   152    1
   127   151   156    1
   128   152   153    1
   129   152   154    1
   130   152   155    1
   131   157   158    1
   132   157   162    1
   133   158   159    1
   134   158   160    1
   135   158   161    1
   136   163   164    1
   137   163   168    1
   138   164   165    1
   139   164   166    1
   140   164   167    1
   141   169   170    1
   142   169   174    1
   143   170   171    1
   144   170   172    1
   145   170   173    1
   146   175   176    1
   147   175   180    1
   148   176   177    1
   149   176   178    1
   150   176   179    1
   151   181   182    1
   152   181   186    1
   153   182   183    1
   154   182   184    1
   155   182   185    1
   156   187   188    1
   157   187   192    1
   158   188   189    1
   159   188   190    1
   160   188   191    1
   161   193   194    1
   162   193   198    1
   163   194   195    1
   164   194   196    1
   165   194   197    1
   166   199   200    1
   167   199   204    1
   168   200   201    1
   169   200   202    1
   170   200   203    1
   171   205   206    1
   172   205   210    1
   173   206   207    1
   174   206   208    1
   175   206   209    1
   176   211   212    1
   177   211   216    1
   178   212   213    1
   179   212   214    1
   180   212   215    1
   181   217   218    1
   182   217   222    1
   183   218   219    1
   184   218   220    1
   185   218   221    1
   186   223   224    1
   187   223   228    1
   188   224   225    1
   189   224   226    1
   190   224   227    1
   191   229   230    1
   192   229   234    1
   193   230   231    1
   194   230   232    1
   195   230   233    1
   196   235   236    1
   197   235   240    1
   198   236   237    1
   199   236   238    1
   200   236   239    1
   201   241   242    1
   202   241   246    1
   203   242   243    1
   204   242   244    1
   205   242   245    1
   206   247   248    1
   207   247   252    1
   208   248   249    1
   209   248   250    1
   210   248   251    1
   211   253   254    1
   212   253   258    1
   213   254   255    1
   214   254   256    1
   215   254   257    1
   216   259   260    1
   217   259   264    1
   218   260   261    1
   219   260   262    1
   220   260   263    1
   221   265   266    1
   222   265   270    1
   223   266   267    1
   224   266   268    1
   225   266   269    1
   226   271   272    1
   227   271   276    1
   228   272   273    1
   229   272   274    1
   230   272   275    1
   231   277   278    1
   232   277   282    1
   233   278   279    1
   234   278   280    1
   235   278   281    1
   236   283   284    1
   237   283   288    1
   238   284   285    1
   239   284   286    1
   240   284   287    1
   241   289   290    1
   242   289   294    1
   243   290   291    1
   244   290   292    1
   245   290   293    1
   246   295   296    1
   247   295   300    1
   248   296   297    1
   249   296   298    1
   250   296   299    1
   251   301   302    1
   252   301   306    1
   253   302   303    1
   254   302   304    1
   255   302   305    1
   256   307   308    1
   257   307   312    1
   258   308   309    1
   259   308   310    1
   260   308   311    1
   261   313   314    1
   262   313   318    1
   263   314   315    1
   264   314   316    1
   265   314   317    1
   266   319   320    1
   267   319   324    1
   268   320   321    1
   269   320   322    1
   270   320   323    1
   271   325   326    1
   272   325   330    1
   273   326   327    1
   274   326   328    1
   275   326   329    1
   276   331   332    1
   277   331   336    1
   278   332   333    1
   279   332   334    1
   280   332   335    1
   281   337   338    1
   282   337   342    1
   283   338   339    1
   284   338   340    1
   285   338   341    1
   286   343   344    1
   287   343   348    1
   288   344   345    1
   289   344   346    1
   290   344   347    1
   291   349   350    1
   292   349   354    1
   293   350   351    1
   294   350   352    1
   295   350   353    1
   296   355   356    1
   297   355   360    1
   298   356   357    1
   299   356   358    1
   300   356   359    1
   301   361   362    1
   302   361   366    1
   303   362   363    1
   304   362   364    1
   305   362   365    1
   306   367   368    1
   307   367   372    1
   308   368   369    1
   309   368   370    1
   310   368   371    1
   311   373   374    1
   312   373   378    1
   313   374   375    1
   314   374   376    1
   315   374   377    1
   316   379   380    1
   317   379   384    1
   318   380   381    1
   319   380   382    1
   320   380   383    1
   321   385   386    1
   322   385   390    1
   323   386   387    1
   324   386   388    1
   325   386   389    1
   326   391   392    1
   327   391   396    1
   328   392   393    1
   329   392   394    1
   330   392   395    1
   331   397   398    1
   332   397   402    1
   333   398   399    1
   334   398   400    1
   335   398   401    1
   336   403   404    1
   337   403   408    1
   338   404   405    1
   339   404   406    1
   340   404   407    1
   341   409   410    1
   342   409   414    1
   343   410   411    1
   344   410   412    1
   345   410   413    1
   346   415   416    1
   347   415   420    1
   348   416   417    1
   349   416   418    1
   350   416   419    1
   351   421   422    1
   352   421   426    1
   353   422   423    1
   354   422   424    1
   355   422   425    1
   356   427   428    1
   357   427   432    1
   358   428   429    1
   359   428   430    1
   360   428   431    1
   361   433   434    1
   362   433   438    1
   363   434   435    1
   364   434   436    1
   365   434   437    1
   366   439   440    1
   367   439   444    1
   368   440   441    1
   369   440   442    1
   370   440   443    1
   371   445   446    1
   372   445   450    1
   373   446   447    1
   374   446   448    1
   375   446   449    1
   376   451   452    1
   377   451   456    1
   378   452   453    1
   379   452   454    1
   380   452   455    1
   381   457   458    1
   382   457   462    1
   383   458   459    1
   384   458   460    1
   385   458   461    1
   386   463   464    1
   387   463   468    1
   388   464   465    1
   389   464   466    1
   390   464   467    1
   391   469   470    1
   392   469   474    1
   393   470   471    1
   394   470   472    1
   395   470   473    1
   396   475   476    1
   397   475   480    1
   398   476   477    1
   399   476   478    1
   400   476   479    1
   401   481   482    1
   402   481   486    1
   403   482   483    1
   404   482   484    1
   405   482   485    1
   406   487   488    1
   407   487   492    1
   408   488   489    1
   409   488   490    1
   410   488   491    1
   411   493   494    1
   412   493   498    1
   413   494   495    1
   414   494   496    1
   415   494   497    1
   416   499   500    1
   417   499   504    1
   418   500   501    1
   419   500   502    1
   420   500   503    1
   421   505   506    1
   422   505   510    1
   423   506   507    1
   424   506   508    1
   425   506   509    1
   426   511   512    1
   427   511   516    1
   428   512   513    1
   429   512   514    1
   430   512   515    1
   431   517   518    1
   432   517   522    1
   433   518   519    1
   434   518   520    1
   435   518   521    1
   436   523   524    1
   437   523   528    1
   438   524   525    1
   439   524   526    1
   440   524   527    1
   441   529   530    1
   442   529   534    1
   443   530   531    1
   444   530   532    1
   445   530   533    1
   446   535   536    1
   447   535   540    1
   448   536   537    1
   449   536   538    1
   450   536   539    1
   451   541   542    1
   452   541   546    1
   453   542   543    1
   454   542   544    1
   455   542   545    1
   456   547   548    1
   457   547   552    1
   458   548   549    1
   459   548   550    1
   460   548   551    1
   461   553   554    1
   462   553   558    1
   463   554   555    1
   464   554   556    1
   465   554   557    1
   466   559   560    1
   467   559   564    1
   468   560   561    1
   469   560   562    1
   470   560   563    1
   471   565   566    1
   472   565   570    1
   473   566   567    1
   474   566   568    1
   475   566   569    1
   476   571   572    1
   477   571   576    1
   478   572   573    1
   479   572   574    1
   480   572   575    1
   481   577   578    1
   482   577   582    1
   483   578   579    1
   484   578   580    1
   485   578   581    1
   486   583   584    1
   487   583   588    1
   488   584   585    1
   489   584   586    1
   490   584   587    1
   491   589   590    1
   492   589   594    1
   493   590   591    1
   494   590   592    1
   495   590   593    1
   496   595   596    1
   497   595   600    1
   498   596   597    1
   499   596   598    1
   500   596   599    1
   501   601   602    1
   502   601   606    1
   503   602   603    1
   504   602   604    1
   505   602   605    1
   506   607   608    1
   507   607   612    1
   508   608   609    1
   509   608   610    1
   510   608   611    1
   511   613   614    1
   512   613   618    1
   513   614   615    1
   514   614   616    1
   515   614   617    1
   516   619   620    1
   517   619   624    1
   518   620   621    1
   519   620   622    1
   520   620   623    1
   521   625   626    1
   522   625   630    1
   523   626   627    1
   524   626   628    1
   525   626   629    1
   526   631   632    1
   527   631   636    1
   528   632   633    1
   529   632   634    1
   530   632   635    1
   531   637   638    1
   532   637   642    1
   533   638   639    1
   534   638   640    1
   535   638   641    1
   536   643   644    1
   537   643   648    1
   538   644   645    1
   539   644   646    1
   540   644   647    1
   541   649   650    1
   542   649   654    1
   543   650   651    1
   544   650   652    1
   545   650   653    1
   546   655   656    1
   547   655   660    1
   548   656   657    1
   549   656   658    1
   550   656   659    1
   551   661   662    1
   552   661   666    1
   553   662   663    1
   554   662   664    1
   555   662   665    1
   556   667   668    1
   557   667   672    1
   558   668   669    1
   559   668   670    1
   560   668   671    1
   561   673   674    1
   562   673   678    1
   563   674   675    1
   564   674   676    1
   565   674   677    1
   566   679   680    1
   567   679   684    1
   568   680   681    1
   569   680   682    1
   570   680   683    1
   571   685   686    1
   572   685   690    1
   573   686   687    1
   574   686   688    1
   575   686   689    1
   576   691   692    1
   577   691   696    1
   578   692   693    1
   579   692   694    1
   580   692   695    1
   581   697   698    1
   582   697   702    1
   583   698   699    1
   584   698   700    1
   585   698   701    1
   586   703   704    1
   587   703   708    1
   588   704   705    1
   589   704   706    1
   590   704   707    1
   591   709   710    1
   592   709   714    1
   593   710   711    1
   594   710   712    1
   595   710   713    1
   596   715   716    1
   597   715   720    1
   598   716   717    1
   599   716   718    1
   600   716   719    1
   601   721   722    1
   602   721   726    1
   603   722   723    1
   604   722   724    1
   605   722   725    1
   606   727   728    1
   607   727   732    1
   608   728   729    1
   609   728   730    1
   610   728   731    1
   611   733   734    1
   612   733   738    1
   613   734   735    1
   614   734   736    1
   615   734   737    1
   616   739   740    1
   617   739   744    1
   618   740   741    1
   619   740   742    1
   620   740   743    1
   621   745   746    1
   622   745   750    1
   623   746   747    1
   624   746   748    1
   625   746   749    1
   626   751   752    1
   627   751   756    1
   628   752   753    1
   629   752   754    1
   630   752   755    1
   631   757   758    1
   632   757   762    1
   633   758   759    1
   634   758   760    1
   635   758   761    1
   636   763   764    1
   637   763   768    1
   638   764   765    1
   639   764   766    1
   640   764   767    1
   641   769   770    1
   642   769   774    1
   643   770   771    1
   644   770   772    1
   645   770   773    1
   646   775   776    1
   647   775   780    1
   648   776   777    1
   649   776   778    1
   650   776   779    1
   651   781   782    1
   652   781   786    1
   653   782   783    1
   654   782   784    1
   655   782   785    1
   656   787   788    1
   657   787   792    1
   658   788   789    1
   659   788   790    1
   660   788   791    1
   661   793   794    1
   662   793   798    1
   663   794   795    1
   664   794   796    1
   665   794   797    1
   666   799   800    1
   667   799   804    1
   668   800   801    1
   669   800   802    1
   670   800   803    1
   671   805   806    1
   672   805   810    1
   673   806   807    1
   674   806   808    1
   675   806   809    1
   676   811   812    1
   677   811   816    1
   678   812   813    1
   679   812   814    1
   680   812   815    1
   681   817   818    1
   682   817   822    1
   683   818   819    1
   684   818   820    1
   685   818   821    1
   686   823   824    1
   687   823   828    1
   688   824   825    1
   689   824   826    1
   690   824   827    1
   691   829   830    1
   692   829   834    1
   693   830   831    1
   694   830   832    1
   695   830   833    1
   696   835   836    1
   697   835   840    1
   698   836   837    1
   699   836   838    1
   700   836   839    1
   701   841   842    1
   702   841   846    1
   703   842   843    1
   704   842   844    1
   705   842   845    1
   706   847   848    1
   707   847   852    1
   708   848   849    1
   709   848   850    1
   710   848   851    1
   711   853   854    1
   712   853   858    1
   713   854   855    1
   714   854   856    1
   715   854   857    1
   716   859   860    1
   717   859   864    1
   718   860   861    1
   719   860   862    1
   720   860   863    1
   721   865   866    1
   722   865   870    1
   723   866   867    1
   724   866   868    1
   725   866   869    1
   726   871   872    1
   727   871   876    1
   728   872   873    1
   729   872   874    1
   730   872   875    1
   731   877   878    1
   732   877   882    1
   733   878   879    1
   734   878   880    1
   735   878   881    1
   736   883   884    1
   737   883   888    1
   738   884   885    1
   739   884   886    1
   740   884   887    1
   741   889   890    1
   742   889   894    1
   743   890   891    1
   744   890   892    1
   745   890   893    1
   746   895   896    1
   747   895   900    1
   748   896   897    1
   749   896   898    1
   750   896   899    1
   751   901   902    1
   752   901   906    1
   753   902   903    1
   754   902   904    1
   755   902   905    1
   756   907   908    1
   757   907   912    1
   758   908   909    1
   759   908   910    1
   760   908   911    1
   761   913   914    1
   762   913   918    1
   763   914   915    1
   764   914   916    1
   765   914   917    1
   766   919   920    1
   767   919   924    1
   768   920   921    1
   769   920   922    1
   770   920   923    1
   771   925   926    1
   772   925   930    1
   773   926   927    1
   774   926   928    1
   775   926   929    1
   776   931   932    1
   777   931   936    1
   778   932   933    1
   779   932   934    1
   780   932   935    1
   781   937   938    1
   782   937   942    1
   783   938   939    1
   784   938   940    1
   785   938   941    1
   786   943   944    1
   787   943   948    1
   788   944   945    1
   789   944   946    1
   790   944   947    1
   791   949   950    1
   792   949   954    1
   793   950   951    1
   794   950   952    1
   795   950   953    1
   796   955   956    1
   797   955   960    1
   798   956   957    1
   799   956   958    1
   800   956   959    1
   801   961   962    1
   802   961   966    1
   803   962   963    1
   804   962   964    1
   805   962   965    1
   806   967   968    1
   807   967   972    1
   808   968   969    1
   809   968   970    1
   810   968   971    1
   811   973   974    1
   812   973   978    1
   813   974   975    1
   814   974   976    1
   815   974   977    1
   816   979   980    1
   817   979   984    1
   818   980   981    1
   819   980   982    1
   820   980   983    1
   821   985   986    1
   822   985   990    1
   823   986   987    1
   824   986   988    1
   825   986   989    1
   826   991   992    1
   827   991   996    1
   828   992   993    1
   829   992   994    1
   830   992   995    1
   831   997   998    1
   832   997  1002    1
   833   998   999    1
   834   998  1000    1
   835   998  1001    1
   836  1003  1004    1
   837  1003  1008    1
   838  1004  1005    1
   839  1004  1006    1
   840  1004  1007    1
   841  1009  1010    1
   842  1009  1014    1
   843  1010  1011    1
   844  1010  1012    1
   845  1010  1013    1
   846  1015  1016    1
   847  1015  1020    1
   848  1016  1017    1
   849  1016  1018    1
   850  1016  1019    1
   851  1021  1022    1
   852  1021  1026    1
   853  1022  1023    1
   854  1022  1024    1
   855  1022  1025    1
   856  1027  1028    1
   857  1027  1032    1
   858  1028  1029    1
   859  1028  1030    1
   860  1028  1031    1
   861  1033  1034    1
   862  1033  1038    1
   863  1034  1035    1
   864  1034  1036    1
   865  1034  1037    1
   866  1039  1040    1
   867  1039  1044    1
   868  1040  1041    1
   869  1040  1042    1
   870  1040  1043    1
   871  1045  1046    1
   872  1045  1050    1
   873  1046  1047    1
   874  1046  1048    1
   875  1046  1049    1
   876  1051  1052    1
   877  1051  1056    1
   878  1052  1053    1
   879  1052  1054    1
   880  1052  1055    1
   881  1057  1058    1
   882  1057  1062    1
   883  1058  1059    1
   884  1058  1060    1
   885  1058  1061    1
   886  1063  1064    1
   887  1063  1068    1
   888  1064  1065    1
   889  1064  1066    1
   890  1064  1067    1
   891  1069  1070    1
   892  1069  1074    1
   893  1070  1071    1
   894  1070  1072    1
   895  1070  1073    1
   896  1075  1076    1
   897  1075  1080    1
   898  1076  1077    1
   899  1076  1078    1
   900  1076  1079    1
   901  1081  1082    1
   902  1081  1086    1
   903  1082  1083    1
   904  1082  1084    1
   905  1082  1085    1
   906  1087  1088    1
   907  1087  1092    1
   908  1088  1089    1
   909  1088  1090    1
   910  1088  1091    1
   911  1093  1094    1
   912  1093  1098    1
   913  1094  1095    1
   914  1094  1096    1
   915  1094  1097    1
   916  1099  1100    1
   917  1099  1104    1
   918  1100  1101    1
   919  1100  1102    1
   920  1100  1103    1
   921  1105  1106    1
   922  1105  1110    1
   923  1106  1107    1
   924  1106  1108    1
   925  1106  1109    1
   926  1111  1112    1
   927  1111  1116    1
   928  1112  1113    1
   929  1112  1114    1
   930  1112  1115    1
   931  1117  1118    1
   932  1117  1122    1
   933  1118  1119    1
   934  1118  1120    1
   935  1118  1121    1
   936  1123  1124    1
   937  1123  1128    1
   938  1124  1125    1
   939  1124  1126    1
   940  1124  1127    1
   941  1129  1130    1
   942  1129  1134    1
   943  1130  1131    1
   944  1130  1132    1
   945  1130  1133    1
   946  1135  1136    1
   947  1135  1140    1
   948  1136  1137    1
   949  1136  1138    1
   950  1136  1139    1
   951  1141  1142    1
   952  1141  1146    1
   953  1142  1143    1
   954  1142  1144    1
   955  1142  1145    1
   956  1147  1148    1
   957  1147  1152    1
   958  1148  1149    1
   959  1148  1150    1
   960  1148  1151    1
   961  1153  1154    1
   962  1153  1158    1
   963  1154  1155    1
   964  1154  1156    1
   965  1154  1157    1
   966  1159  1160    1
   967  1159  1164    1
   968  1160  1161    1
   969  1160  1162    1
   970  1160  1163    1
   971  1165  1166    1
   972  1165  1170    1
   973  1166  1167    1
   974  1166  1168    1
   975  1166  1169    1
   976  1171  1172    1
   977  1171  1176    1
   978  1172  1173    1
   979  1172  1174    1
   980  1172  1175    1
   981  1177  1178    1
   982  1177  1182    1
   983  1178  1179    1
   984  1178  1180    1
   985  1178  1181    1
   986  1183  1184    1
   987  1183  1188    1
   988  1184  1185    1
   989  1184  1186    1
   990  1184  1187    1
   991  1189  1190    1
   992  1189  1194    1
   993  1190  1191    1
   994  1190  1192    1
   995  1190  1193    1
   996  1195  1196    1
   997  1195  1200    1
   998  1196  1197    1
   999  1196  1198    1
  1000  1196  1199    1
  1001  1201  1202    1
  1002  1201  1206    1
  1003  1202  1203    1
  1004  1202  1204    1
  1005  1202  1205    1
  1006  1207  1208    1
  1007  1207  1212    1
  1008  1208  1209    1
  1009  1208  1210    1
  1010  1208  1211    1
  1011  1213  1214    1
  1012  1213  1218    1
  1013  1214  1215    1
  1014  1214  1216    1
  1015  1214  1217    1
  1016  1219  1220    1
  1017  1219  1224    1
  1018  1220  1221    1
  1019  1220  1222    1
  1020  1220  1223    1
  1021  1225  1226    1
  1022  1225  1230    1
  1023  1226  1227    1
  1024  1226  1228    1
  1025  1226  1229    1
  1026  1231  1232    1
  1027  1231  1236    1
  1028  1232  1233    1
  1029  1232  1234    1
  1030  1232  1235    1
  1031  1237  1238    1
  1032  1237  1242    1
  1033  1238  1239    1
  1034  1238  1240    1
  1035  1238  1241    1
  1036  1243  1244    1
  1037  1243  1248    1
  1038  1244  1245    1
  1039  1244  1246    1
  1040  1244  1247    1
  1041  1249  1250    1
  1042  1249  1254    1
  1043  1250  1251    1
  1044  1250  1252    1
  1045  1250  1253    1
  1046  1255  1256    1
  1047  1255  1260    1
  1048  1256  1257    1
  1049  1256  1258    1
  1050  1256  1259    1
  1051  1261  1262    1
  1052  1261  1266    1
  1053  1262  1263    1
  1054  1262  1264    1
  1055  1262  1265    1
  1056  1267  1268    1
  1057  1267  1272    1
  1058  1268  1269    1
  1059  1268  1270    1
  1060  1268  1271    1
  1061  1273  1274    1
  1062  1273  1278    1
  1063  1274  1275    1
  1064  1274  1276    1
  1065  1274  1277    1
  1066  1279  1280    1
  1067  1279  1284    1
  1068  1280  1281    1
  1069  1280  1282    1
  1070  1280  1283    1
  1071  1285  1286    1
  1072  1285  1290    1
  1073  1286  1287    1
  1074  1286  1288    1
  1075  1286  1289    1
  1076  1291  1292    1
  1077  1291  1296    1
  1078  1292  1293    1
  1079  1292  1294    1
  1080  1292  1295    1
  1081  1297  1298    1
  1082  1297  1302    1
  1083  1298  1299    1
  1084  1298  1300    1
  1085  1298  1301    1
  1086  1303  1304    1
  1087  1303  1308    1
  1088  1304  1305    1
  1089  1304  1306    1
  1090  1304  1307    1
  1091  1309  1310    1
  1092  1309  1314    1
  1093  1310  1311    1
  1094  1310  1312    1
  1095  1310  1313    1
  1096  1315  1316    1
  1097  1315  1320    1
  1098  1316  1317    1
  1099  1316  1318    1
  1100  1316  1319    1
  1101  1321  1322    1
  1102  1321  1326    1
  1103  1322  1323    1
  1104  1322  1324    1
  1105  1322  1325    1
  1106  1327  1328    1
  1107  1327  1332    1
  1108  1328  1329    1
  1109  1328  1330    1
  1110  1328  1331    1
  1111  1333  1334    1
  1112  1333  1338    1
  1113  1334  1335    1
  1114  1334  1336    1
  1115  1334  1337    1
  1116  1339  1340    1
  1117  1339  1344    1
  1118  1340  1341    1
  1119  1340  1342    1
  1120  1340  1343    1
  1121  1345  1346    1
  1122  1345  1350    1
  1123  1346  1347    1
  1124  1346  1348    1
  1125  1346  1349    1
  1126  1351  1352    1
  1127  1351  1356    1
  1128  1352  1353    1
  1129  1352  1354    1
  1130  1352  1355    1
  1131  1357  1358    1
  1132  1357  1362    1
  1133  1358  1359    1
  1134  1358  1360    1
  1135  1358  1361    1
  1136  1363  1364    1
  1137  1363  1368    1
  1138  1364  1365    1
  1139  1364  1366    1
  1140  1364  1367    1
  1141  1369  1370    1
  1142  1369  1374    1
  1143  1370  1371    1
  1144  1370  1372    1
  1145  1370  1373    1
  1146  1375  1376    1
  1147  1375  1380    1
  1148  1376  1377    1
  1149  1376  1378    1
  1150  1376  1379    1
  1151  1381  1382    1
  1152  1381  1386    1
  1153  1382  1383    1
  1154  1382  1384    1
  1155  1382  1385    1
  1156  1387  1388    1
  1157  1387  1392    1
  1158  1388  1389    1
  1159  1388  1390    1
  1160  1388  1391    1
  1161  1393  1394    1
  1162  1393  1398    1
  1163  1394  1395    1
  1164  1394  1396    1
  1165  1394  1397    1
  1166  1399  1400    1
  1167  1399  1404    1
  1168  1400  1401    1
  1169  1400  1402    1
  1170  1400  1403    1
  1171  1405  1406    1
  1172  1405  1410    1
  1173  1406  1407    1
  1174  1406  1408    1
  1175  1406  1409    1
  1176  1411  1412    1
  1177  1411  1416    1
  1178  1412  1413    1
  1179  1412  1414    1
  1180  1412  1415    1
  1181  1417  1418    1
  1182  1417  1422    1
  1183  1418  1419    1
  1184  1418  1420    1
  1185  1418  1421    1
  1186  1423  1424    1
  1187  1423  1428    1
  1188  1424  1425    1
  1189  1424  1426    1
  1190  1424  1427    1
  1191  1429  1430    1
  1192  1429  1434    1
  1193  1430  1431    1
  1194  1430  1432    1
  1195  1430  1433    1
  1196  1435  1436    1
  1197  1435  1440    1
  1198  1436  1437    1
  1199  1436  1438    1
  1200  1436  1439    1
  1201  1441  1442    1
  1202  1441  1446    1
  1203  1442  1443    1
  1204  1442  1444    1
  1205  1442  1445    1
  1206  1447  1448    1
  1207  1447  1452    1
  1208  1448  1449    1
  1209  1448  1450    1
  1210  1448  1451    1
  1211  1453  1454    1
  1212  1453  1458    1
  1213  1454  1455    1
  1214  1454  1456    1
  1215  1454  1457    1
  1216  1459  1460    1
  1217  1459  1464    1
  1218  1460  1461    1
  1219  1460  1462    1
  1220  1460  1463    1
  1221  1465  1466    1
  1222  1465  1470    1
  1223  1466  1467    1
  1224  1466  1468    1
  1225  1466  1469    1
  1226  1471  1472    1
  1227  1471  1476    1
  1228  1472  1473    1
  1229  1472  1474    1
  1230  1472  1475    1
  1231  1477  1478    1
  1232  1477  1482    1
  1233  1478  1479    1
  1234  1478  1480    1
  1235  1478  1481    1
  1236  1483  1484    1
  1237  1483  1488    1
  1238  1484  1485    1
  1239  1484  1486    1
  1240  1484  1487    1
  1241  1489  1490    1
  1242  1489  1494    1
  1243  1490  1491    1
  1244  1490  1492    1
  1245  1490  1493    1
  1246  1495  1496    1
  1247  1495  1500    1
  1248  1496  1497    1
  1249  1496  1498    1
  1250  1496  1499    1
  1251  1501  1502    1
  1252  1501  1506    1
  1253  1502  1503    1
  1254  1502  1504    1
  1255  1502  1505    1
  1256  1507  1508    1
  1257  1507  1512    1
  1258  1508  1509    1
  1259  1508  1510    1
  1260  1508  1511    1
  1261  1513  1514    1
  1262  1513  1518    1
  1263  1514  1515    1
  1264  1514  1516    1
  1265  1514  1517    1
  1266  1519  1520    1
  1267  1519  1524    1
  1268  1520  1521    1
  1269  1520  1522    1
  1270  1520  1523    1
  1271  1525  1526    1
  1272  1525  1530    1
  1273  1526  1527    1
  1274  1526  1528    1
  1275  1526  1529    1
  1276  1531  1532    1
  1277  1531  1536    1
  1278  1532  1533    1
  1279  1532  1534    1
  1280  1532  1535    1
  1281  1537  1538    1
  1282  1537  1542    1
  1283  1538  1539    1
  1284  1538  1540    1
  1285  1538  1541    1
  1286  1543  1544    1
  1287  1543  1548    1
  1288  1544  1545    1
  1289  1544  1546    1
  1290  1544  1547    1
  1291  1549  1550    1
  1292  1549  1554    1
  1293  1550  1551    1
  1294  1550  1552    1
  1295  1550  1553    1
  1296  1555  1556    1
  1297  1555  1560    1
  1298  1556  1557    1
  1299  1556  1558    1
  1300  1556  1559    1
  1301  1561  1562    1
  1302  1561  1566    1
  1303  1562  1563    1
  1304  1562  1564    1
  1305  1562  1565    1
  1306  1567  1568    1
  1307  1567  1572    1
  1308  1568  1569    1
  1309  1568  1570    1
  1310  1568  1571    1
  1311  1573  1574    1
  1312  1573  1578    1
  1313  1574  1575    1
  1314  1574  1576    1
  1315  1574  1577    1
  1316  1579  1580    1
  1317  1579  1584    1
  1318  1580  1581    1
  1319  1580  1582    1
  1320  1580  1583    1
  1321  1585  1586    1
  1322  1585  1590    1
  1323  1586  1587    1
  1324  1586  1588    1
  1325  1586  1589    1
  1326  1591  1592    1
  1327  1591  1596    1
  1328  1592  1593    1
  1329  1592  1594    1
  1330  1592  1595    1
  1331  1597  1598    1
  1332  1597  1602    1
  1333  1598  1599    1
  1334  1598  1600    1
  1335  1598  1601    1
  1336  1603  1604    1
  1337  1603  1608    1
  1338  1604  1605    1
  1339  1604  1606    1
  1340  1604  1607    1
  1341  1609  1610    1
  1342  1609  1614    1
  1343  1610  1611    1
  1344  1610  1612    1
  1345  1610  1613    1
  1346  1615  1616    1
  1347  1615  1620    1
  1348  1616  1617    1
  1349  1616  1618    1
  1350  1616  1619    1
  1351  1621  1622    1
  1352  1621  1626    1
  1353  1622  1623    1
  1354  1622  1624    1
  1355  1622  1625    1
  1356  1627  1628    1
  1357  1627  1632    1
  1358  1628  1629    1
  1359  1628  1630    1
  1360  1628  1631    1
  1361  1633  1634    1
  1362  1633  1638    1
  1363  1634  1635    1
  1364  1634  1636    1
  1365  1634  1637    1
  1366  1639  1640    1
  1367  1639  1644    1
  1368  1640  1641    1
  1369  1640  1642    1
  1370  1640  1643    1
  1371  1645  1646    1
  1372  1645  1650    1
  1373  1646  1647    1
  1374  1646  1648    1
  1375  1646  1649    1
  1376  1651  1652    1
  1377  1651  1656    1
  1378  1652  1653    1
  1379  1652  1654    1
  1380  1652  1655    1
  1381  1657  1658    1
  1382  1657  1662    1
  1383  1658  1659    1
  1384  1658  1660    1
  1385  1658  1661    1
  1386  1663  1664    1
  1387  1663  1668    1
  1388  1664  1665    1
  1389  1664  1666    1
  1390  1664  1667    1
  1391  1669  1670    1
  1392  1669  1674    1
  1393  1670  1671    1
  1394  1670  1672    1
  1395  1670  1673    1
  1396  1675  1676    1
  1397  1675  1680    1
  1398  1676  1677    1
  1399  1676  1678    1
  1400  1676  1679    1
  1401  1681  1682    1
  1402  1681  1686    1
  1403  1682  1683    1
  1404  1682  1684    1
  1405  1682  1685    1
  1406  1687  1688    1
  1407  1687  1692    1
  1408  1688  1689    1
  1409  1688  1690    1
  1410  1688  1691    1
  1411  1693  1694    1
  1412  1693  1698    1
  1413  1694  1695    1
  1414  1694  1696    1
  1415  1694  1697    1
  1416  1699  1700    1
  1417  1699  1704    1
  1418  1700  1701    1
  1419  1700  1702    1
  1420  1700  1703    1
  1421  1705  1706    1
  1422  1705  1710    1
  1423  1706  1707    1
  1424  1706  1708    1
  1425  1706  1709    1
  1426  1711  1712    1
  1427  1711  1716    1
  1428  1712  1713    1
  1429  1712  1714    1
  1430  1712  1715    1
  1431  1717  1718    1
  1432  1717  1722    1
  1433  1718  1719    1
  1434  1718  1720    1
  1435  1718  1721    1
  1436  1723  1724    1
  1437  1723  1728    1
  1438  1724  1725    1
  1439  1724  1726    1
  1440  1724  1727    1
  1441  1729  1730    1
  1442  1729  1734    1
  1443  1730  1731    1
  1444  1730  1732    1
  1445  1730  1733    1
  1446  1735  1736    1
  1447  1735  1740    1
  1448  1736  1737    1
  1449  1736  1738    1
  1450  1736  1739    1
  1451  1741  1742    1
  1452  1741  1746    1
  1453  1742  1743    1
  1454  1742  1744    1
  1455  1742  1745    1
  1456  1747  1748    1
  1457  1747  1752    1
  1458  1748  1749    1
  1459  1748  1750    1
  1460  1748  1751    1
  1461  1753  1754    1
  1462  1753  1758    1
  1463  1754  1755    1
  1464  1754  1756    1
  1465  1754  1757    1
  1466  1759  1760    1
  1467  1759  1764    1
  1468  1760  1761    1
  1469  1760  1762    1
  1470  1760  1763    1
  1471  1765  1766    1
  1472  1765  1770    1
  1473  1766  1767    1
  1474  1766  1768    1
  1475  1766  1769    1
  1476  1771  1772    1
  1477  1771  1776    1
  1478  1772  1773    1
  1479  1772  1774    1
  1480  1772  1775    1
  1481  1777  1778    1
  1482  1777  1782    1
  1483  1778  1779    1
  1484  1778  1780    1
  1485  1778  1781    1
  1486  1783  1784    1
  1487  1783  1788    1
  1488  1784  1785    1
  1489  1784  1786    1
  1490  1784  1787    1
  1491  1789  1790    1
  1492  1789  1794    1
  1493  1790  1791    1
  1494  1790  1792    1
  1495  1790  1793    1
  1496  1795  1796    1
  1497  1795  1800    1
  1498  1796  1797    1
  1499  1796  1798    1
  1500  1796  1799    1
  1501  1801  1802    1
  1502  1801  1806    1
  1503  1802  1803    1
  1504  1802  1804    1
  1505  1802  1805    1
  1506  1807  1808    1
  1507  1807  1812    1
  1508  1808  1809    1
  1509  1808  1810    1
  1510  1808  1811    1
  1511  1813  1814    1
  1512  1813  1818    1
  1513  1814  1815    1
  1514  1814  1816    1
  1515  1814  1817    1
  1516  1819  1820    1
  1517  1819  1824    1
  1518  1820  1821    1
  1519  1820  1822    1
  1520  1820  1823    1
  1521  1825  1826    1
  1522  1825  1830    1
  1523  1826  1827    1
  1524  1826  1828    1
  1525  1826  1829    1
  1526  1831  1832    1
  1527  1831  1836    1
  1528  1832  1833    1
  1529  1832  1834    1
  1530  1832  1835    1
  1531  1837  1838    1
  1532  1837  1842    1
  1533  1838  1839    1
  1534  1838  1840    1
  1535  1838  1841    1
  1536  1843  1844    1
  1537  1843  1848    1
  1538  1844  1845    1
  1539  1844  1846    1
  1540  1844  1847    1
  1541  1849  1850    1
  1542  1849  1854    1
  1543  1850  1851    1
  1544  1850  1852    1
  1545  1850  1853    1
  1546  1855  1856    1
  1547  1855  1860    1
  1548  1856  1857    1
  1549  1856  1858    1
  1550  1856  1859    1
  1551  1861  1862    1
  1552  1861  1866    1
  1553  1862  1863    1
  1554  1862  1864    1
  1555  1862  1865    1
  1556  1867  1868    1
  1557  1867  1872    1
  1558  1868  1869    1
  1559  1868  1870    1
  1560  1868  1871    1
  1561  1873  1874    1
  1562  1873  1878    1
  1563  1874  1875    1
  1564  1874  1876    1
  1565  1874  1877    1
  1566  1879  1880    1
  1567  1879  1884    1
  1568  1880  1881    1
  1569  1880  1882    1
  1570  1880  1883    1
  1571  1885  1886    1
  1572  1885  1890    1
  1573  1886  1887    1
  1574  1886  1888    1
  1575  1886  1889    1
  1576  1891  1892    1
  1577  1891  1896    1
  1578  1892  1893    1
  1579  1892  1894    1
  1580  1892  1895    1
  1581  1897  1898    1
  1582  1897  1902    1
  1583  1898  1899    1
  1584  1898  1900    1
  1585  1898  1901    1
  1586  1903  1904    1
  1587  1903  1908    1
  1588  1904  1905    1
  1589  1904  1906    1
  1590  1904  1907    1
  1591  1909  1910    1
  1592  1909  1914    1
  1593  1910  1911    1
  1594  1910  1912    1
  1595  1910  1913    1
  1596  1915  1916    1
  1597  1915  1920    1
  1598  1916  1917    1
  1599  1916  1918    1
  1600  1916  1919    1
  1601  1921  1922    1
  1602  1921  1926    1
  1603  1922  1923    1
  1604  1922  1924    1
  1605  1922  1925    1
  1606  1927  1928    1
  1607  1927  1932    1
  1608  1928  1929    1
  1609  1928  1930    1
  1610  1928  1931    1
  1611  1933  1934    1
  1612  1933  1938    1
  1613  1934  1935    1
  1614  1934  1936    1
  1615  1934  1937    1
  1616  1939  1940    1
  1617  1939  1944    1
  1618  1940  1941    1
  1619  1940  1942    1
  1620  1940  1943    1
  1621  1945  1946    1
  1622  1945  1950    1
  1623  1946  1947    1
  1624  1946  1948    1
  1625  1946  1949    1
  1626  1951  1952    1
  1627  1951  1956    1
  1628  1952  1953    1
  1629  1952  1954    1
  1630  1952  1955    1
  1631  1957  1958    1
  1632  1957  1962    1
  1633  1958  1959    1
  1634  1958  1960    1
  1635  1958  1961    1
  1636  1963  1964    1
  1637  1963  1968    1
  1638  1964  1965    1
  1639  1964  1966    1
  1640  1964  1967    1
  1641  1969  1970    1
  1642  1969  1974    1
  1643  1970  1971    1
  1644  1970  1972    1
  1645  1970  1973    1
  1646  1975  1976    1
  1647  1975  1980    1
  1648  1976  1977    1
  1649  1976  1978    1
  1650  1976  1979    1
  1651  1981  1982    1
  1652  1981  1986    1
  1653  1982  1983    1
  1654  1982  1984    1
  1655  1982  1985    1
  1656  1987  1988    1
  1657  1987  1992    1
  1658  1988  1989    1
  1659  1988  1990    1
  1660  1988  1991    1
  1661  1993  1994    1
  1662  1993  1998    1
  1663  1994  1995    1
  1664  1994  1996    1
  1665  1994  1997    1
  1666  1999  2000    1
  1667  1999  2004    1
  1668  2000  2001    1
  1669  2000  2002    1
  1670  2000  2003    1
  1671  2005  2006    1
  1672  2005  2010    1
  1673  2006  2007    1
  1674  2006  2008    1
  1675  2006  2009    1
  1676  2011  2012    1
  1677  2011  2016    1
  1678  2012  2013    1
  1679  2012  2014    1
  1680  2012  2015    1
  1681  2017  2018    1
  1682  2017  2022    1
  1683  2018  2019    1
  1684  2018  2020    1
  1685  2018  2021    1
  1686  2023  2024    1
  1687  2023  2028    1
  1688  2024  2025    1
  1689  2024  2026    1
  1690  2024  2027    1
  1691  2029  2030    1
  1692  2029  2034    1
  1693  2030  2031    1
  1694  2030  2032    1
  1695  2030  2033    1
  1696  2035  2036    1
  1697  2035  2040    1
  1698  2036  2037    1
  1699  2036  2038    1
  1700  2036  2039    1
  1701  2041  2042    1
  1702  2041  2046    1
  1703  2042  2043    1
  1704  2042  2044    1
  1705  2042  2045    1
  1706  2047  2048    1
  1707  2047  2052    1
  1708  2048  2049    1
  1709  2048  2050    1
  1710  2048  2051    1
  1711  2053  2054    1
  1712  2053  2058    1
  1713  2054  2055    1
  1714  2054  2056    1
  1715  2054  2057    1
  1716  2059  2060    1
  1717  2059  2064    1
  1718  2060  2061    1
  1719  2060  2062    1
  1720  2060  2063    1
  1721  2065  2066    1
  1722  2065  2070    1
  1723  2066  2067    1
  1724  2066  2068    1
  1725  2066  2069    1
  1726  2071  2072    1
  1727  2071  2076    1
  1728  2072  2073    1
  1729  2072  2074    1
  1730  2072  2075    1
  1731  2077  2078    1
  1732  2077  2082    1
  1733  2078  2079    1
  1734  2078  2080    1
  1735  2078  2081    1
  1736  2083  2084    1
  1737  2083  2088    1
  1738  2084  2085    1
  1739  2084  2086    1
  1740  2084  2087    1
  1741  2089  2090    1
  1742  2089  2094    1
  1743  2090  2091    1
  1744  2090  2092    1
  1745  2090  2093    1
  1746  2095  2096    1
  1747  2095  2100    1
  1748  2096  2097    1
  1749  2096  2098    1
  1750  2096  2099    1
  1751  2101  2102    1
  1752  2101  2106    1
  1753  2102  2103    1
  1754  2102  2104    1
  1755  2102  2105    1
  1756  2107  2108    1
  1757  2107  2112    1
  1758  2108  2109    1
  1759  2108  2110    1
  1760  2108  2111    1
  1761  2113  2114    1
  1762  2113  2118    1
  1763  2114  2115    1
  1764  2114  2116    1
  1765  2114  2117    1
  1766  2119  2120    1
  1767  2119  2124    1
  1768  2120  2121    1
  1769  2120  2122    1
  1770  2120  2123    1
  1771  2125  2126    1
  1772  2125  2130    1
  1773  2126  2127    1
  1774  2126  2128    1
  1775  2126  2129    1
  1776  2131  2132    1
  1777  2131  2136    1
  1778  2132  2133    1
  1779  2132  2134    1
  1780  2132  2135    1
  1781  2137  2138    1
  1782  2137  2142    1
  1783  2138  2139    1
  1784  2138  2140    1
  1785  2138  2141    1
  1786  2143  2144    1
  1787  2143  2148    1
  1788  2144  2145    1
  1789  2144  2146    1
  1790  2144  2147    1
  1791  2149  2150    1
  1792  2149  2154    1
  1793  2150  2151    1
  1794  2150  2152    1
  1795  2150  2153    1
  1796  2155  2156    1
  1797  2155  2160    1
  1798  2156  2157    1
  1799  2156  2158    1
  1800  2156  2159    1
  1801  2161  2162    1
  1802  2161  2166    1
  1803  2162  2163    1
  1804  2162  2164    1
  1805  2162  2165    1
  1806  2167  2168    1
  1807  2167  2172    1
  1808  2168  2169    1
  1809  2168  2170    1
  1810  2168  2171    1
  1811  2173  2174    1
  1812  2173  2178    1
  1813  2174  2175    1
  1814  2174  2176    1
  1815  2174  2177    1
  1816  2179  2180    1
  1817  2179  2184    1
  1818  2180  2181    1
  1819  2180  2182    1
  1820  2180  2183    1
  1821  2185  2186    1
  1822  2185  2190    1
  1823  2186  2187    1
  1824  2186  2188    1
  1825  2186  2189    1
  1826  2191  2192    1
  1827  2191  2196    1
  1828  2192  2193    1
  1829  2192  2194    1
  1830  2192  2195    1
  1831  2197  2198    1
  1832  2197  2202    1
  1833  2198  2199    1
  1834  2198  2200    1
  1835  2198  2201    1
  1836  2203  2204    1
  1837  2203  2208    1
  1838  2204  2205    1
  1839  2204  2206    1
  1840  2204  2207    1
  1841  2209  2210    1
  1842  2209  2214    1
  1843  2210  2211    1
  1844  2210  2212    1
  1845  2210  2213    1
  1846  2215  2216    1
  1847  2215  2220    1
  1848  2216  2217    1
  1849  2216  2218    1
  1850  2216  2219    1
  1851  2221  2222    1
  1852  2221  2226    1
  1853  2222  2223    1
  1854  2222  2224    1
  1855  2222  2225    1
  1856  2227  2228    1
  1857  2227  2232    1
  1858  2228  2229    1
  1859  2228  2230    1
  1860  2228  2231    1
  1861  2233  2234    1
  1862  2233  2238    1
  1863  2234  2235    1
  1864  2234  2236    1
  1865  2234  2237    1
  1866  2239  2240    1
  1867  2239  2244    1
  1868  2240  2241    1
  1869  2240  2242    1
  1870  2240  2243    1
  1871  2245  2246    1
  1872  2245  2250    1
  1873  2246  2247    1
  1874  2246  2248    1
  1875  2246  2249    1
  1876  2251  2252    1
  1877  2251  2256    1
  1878  2252  2253    1
  1879  2252  2254    1
  1880  2252  2255    1
  1881  2257  2258    1
  1882  2257  2262    1
  1883  2258  2259    1
  1884  2258  2260    1
  1885  2258  2261    1
  1886  2263  2264    1
  1887  2263  2268    1
  1888  2264  2265    1
  1889  2264  2266    1
  1890  2264  2267    1
  1891  2269  2270    1
  1892  2269  2274    1
  1893  2270  2271    1
  1894  2270  2272    1
  1895  2270  2273    1
  1896  2275  2276    1
  1897  2275  2280    1
  1898  2276  2277    1
  1899  2276  2278    1
  1900  2276  2279    1
  1901  2281  2282    1
  1902  2281  2286    1
  1903  2282  2283    1
  1904  2282  2284    1
  1905  2282  2285    1
  1906  2287  2288    1
  1907  2287  2292    1
  1908  2288  2289    1
  1909  2288  2290    1
  1910  2288  2291    1
  1911  2293  2294    1
  1912  2293  2298    1
  1913  2294  2295    1
  1914  2294  2296    1
  1915  2294  2297    1
  1916  2299  2300    1
  1917  2299  2304    1
  1918  2300  2301    1
  1919  2300  2302    1
  1920  2300  2303    1
  1921  2305  2306    1
  1922  2305  2310    1
  1923  2306  2307    1
  1924  2306  2308    1
  1925  2306  2309    1
  1926  2311  2312    1
  1927  2311  2316    1
  1928  2312  2313    1
  1929  2312  2314    1
  1930  2312  2315    1
  1931  2317  2318    1
  1932  2317  2322    1
  1933  2318  2319    1
  1934  2318  2320    1
  1935  2318  2321    1
  1936  2323  2324    1
  1937  2323  2328    1
  1938  2324  2325    1
  1939  2324  2326    1
  1940  2324  2327    1
  1941  2329  2330    1
  1942  2329  2334    1
  1943  2330  2331    1
  1944  2330  2332    1
  1945  2330  2333    1
  1946  2335  2336    1
  1947  2335  2340    1
  1948  2336  2337    1
  1949  2336  2338    1
  1950  2336  2339    1
  1951  2341  2342    1
  1952  2341  2346    1
  1953  2342  2343    1
  1954  2342  2344    1
  1955  2342  2345    1
  1956  2347  2348    1
  1957  2347  2352    1
  1958  2348  2349    1
  1959  2348  2350    1
  1960  2348  2351    1
  1961  2353  2354    1
  1962  2353  2358    1
  1963  2354  2355    1
  1964  2354  2356    1
  1965  2354  2357    1
  1966  2359  2360    1
  1967  2359  2364    1
  1968  2360  2361    1
  1969  2360  2362    1
  1970  2360  2363    1
  1971  2365  2366    1
  1972  2365  2370    1
  1973  2366  2367    1
  1974  2366  2368    1
  1975  2366  2369    1
  1976  2371  2372    1
  1977  2371  2376    1
  1978  2372  2373    1
  1979  2372  2374    1
  1980  2372  2375    1
  1981  2377  2378    1
  1982  2377  2382    1
  1983  2378  2379    1
  1984  2378  2380    1
  1985  2378  2381    1
  1986  2383  2384    1
  1987  2383  2388    1
  1988  2384  2385    1
  1989  2384  2386    1
  1990  2384  2387    1
  1991  2389  2390    1
  1992  2389  2394    1
  1993  2390  2391    1
  1994  2390  2392    1
  1995  2390  2393    1
  1996  2395  2396    1
  1997  2395  2400    1
  1998  2396  2397    1
  1999  2396  2398    1
  2000  2396  2399    1
  2001  2401  2402    1
  2002  2401  2406    1
  2003  2402  2403    1
  2004  2402  2404    1
  2005  2402  2405    1
  2006  2407  2408    1
  2007  2407  2412    1
  2008  2408  2409    1
  2009  2408  2410    1
  2010  2408  2411    1
  2011  2413  2414    1
  2012  2413  2418    1
  2013  2414  2415    1
  2014  2414  2416    1
  2015  2414  2417    1
  2016  2419  2420    1
  2017  2419  2424    1
  2018  2420  2421    1
  2019  2420  2422    1
  2020  2420  2423    1
  2021  2425  2426    1
  2022  2425  2430    1
  2023  2426  2427    1
  2024  2426  2428    1
  2025  2426  2429    1
  2026  2431  2432    1
  2027  2431  2436    1
  2028  2432  2433    1
  2029  2432  2434    1
  2030  2432  2435    1
  2031  2437  2438    1
  2032  2437  2442    1
  2033  2438  2439    1
  2034  2438  2440    1
  2035  2438  2441    1
  2036  2443  2444    1
  2037  2443  2448    1
  2038  2444  2445    1
  2039  2444  2446    1
  2040  2444  2447    1
  2041  2449  2450    1
  2042  2449  2454    1
  2043  2450  2451    1
  2044  2450  2452    1
  2045  2450  2453    1
  2046  2455  2456    1
  2047  2455  2460    1
  2048  2456  2457    1
  2049  2456  2458    1
  2050  2456  2459    1
  2051  2461  2462    1
  2052  2461  2466    1
  2053  2462  2463    1
  2054  2462  2464    1
  2055  2462  2465    1
  2056  2467  2468    1
  2057  2467  2472    1
  2058  2468  2469    1
  2059  2468  2470    1
  2060  2468  2471    1
  2061  2473  2474    1
  2062  2473  2478    1
  2063  2474  2475    1
  2064  2474  2476    1
  2065  2474  2477    1
  2066  2479  2480    1
  2067  2479  2484    1
  2068  2480  2481    1
  2069  2480  2482    1
  2070  2480  2483    1
  2071  2485  2486    1
  2072  2485  2490    1
  2073  2486  2487    1
  2074  2486  2488    1
  2075  2486  2489    1
  2076  2491  2492    1
  2077  2491  2496    1
  2078  2492  2493    1
  2079  2492  2494    1
  2080  2492  2495    1
  2081  2497  2498    1
  2082  2497  2502    1
  2083  2498  2499    1
  2084  2498  2500    1
  2085  2498  2501    1
  2086  2503  2504    1
  2087  2503  2508    1
  2088  2504  2505    1
  2089  2504  2506    1
  2090  2504  2507    1
  2091  2509  2510    1
  2092  2509  2514    1
  2093  2510  2511    1
  2094  2510  2512    1
  2095  2510  2513    1
  2096  2515  2516    1
  2097  2515  2520    1
  2098  2516  2517    1
  2099  2516  2518    1
  2100  2516  2519    1
  2101  2521  2522    1
  2102  2521  2526    1
  2103  2522  2523    1
  2104  2522  2524    1
  2105  2522  2525    1
  2106  2527  2528    1
  2107  2527  2532    1
  2108  2528  2529    1
  2109  2528  2530    1
  2110  2528  2531    1
  2111  2533  2534    1
  2112  2533  2538    1
  2113  2534  2535    1
  2114  2534  2536    1
  2115  2534  2537    1
  2116  2539  2540    1
  2117  2539  2544    1
  2118  2540  2541    1
  2119  2540  2542    1
  2120  2540  2543    1
  2121  2545  2546    1
  2122  2545  2550    1
  2123  2546  2547    1
  2124  2546  2548    1
  2125  2546  2549    1
  2126  2551  2552    1
  2127  2551  2556    1
  2128  2552  2553    1
  2129  2552  2554    1
  2130  2552  2555    1
  2131  2557  2558    1
  2132  2557  2562    1
  2133  2558  2559    1
  2134  2558  2560    1
  2135  2558  2561    1
  2136  2563  2564    1
  2137  2563  2568    1
  2138  2564  2565    1
  2139  2564  2566    1
  2140  2564  2567    1
  2141  2569  2570    1
  2142  2569  2574    1
  2143  2570  2571    1
  2144  2570  2572    1
  2145  2570  2573    1
  2146  2575  2576    1
  2147  2575  2580    1
  2148  2576  2577    1
  2149  2576  2578    1
  2150  2576  2579    1
  2151  2581  2582    1
  2152  2581  2586    1
  2153  2582  2583    1
  2154  2582  2584    1
  2155  2582  2585    1
  2156  2587  2588    1
  2157  2587  2592    1
  2158  2588  2589    1
  2159  2588  2590    1
  2160  2588  2591    1
  2161  2593  2594    1
  2162  2593  2598    1
  2163  2594  2595    1
  2164  2594  2596    1
  2165  2594  2597    1
  2166  2599  2600    1
  2167  2599  2604    1
  2168  2600  2601    1
  2169  2600  2602    1
  2170  2600  2603    1
  2171  2605  2606    1
  2172  2605  2610    1
  2173  2606  2607    1
  2174  2606  2608    1
  2175  2606  2609    1
  2176  2611  2612    1
  2177  2611  2616    1
  2178  2612  2613    1
  2179  2612  2614    1
  2180  2612  2615    1
  2181  2617  2618    1
  2182  2617  2622    1
  2183  2618  2619    1
  2184  2618  2620    1
  2185  2618  2621    1
  2186  2623  2624    1
  2187  2623  2628    1
  2188  2624  2625    1
  2189  2624  2626    1
  2190  2624  2627    1
  2191  2629  2630    1
  2192  2629  2634    1
  2193  2630  2631    1
  2194  2630  2632    1
  2195  2630  2633    1
  2196  2635  2636    1
  2197  2635  2640    1
  2198  2636  2637    1
  2199  2636  2638    1
  2200  2636  2639    1
  2201  2641  2642    1
  2202  2641  2646    1
  2203  2642  2643    1
  2204  2642  2644    1
  2205  2642  2645    1
  2206  2647  2648    1
  2207  2647  2652    1
  2208  2648  2649    1
  2209  2648  2650    1
  2210  2648  2651    1
  2211  2653  2654    1
  2212  2653  2658    1
  2213  2654  2655    1
  2214  2654  2656    1
  2215  2654  2657    1
  2216  2659  2660    1
  2217  2659  2664    1
  2218  2660  2661    1
  2219  2660  2662    1
  2220  2660  2663    1
  2221  2665  2666    1
  2222  2665  2670    1
  2223  2666  2667    1
  2224  2666  2668    1
  2225  2666  2669    1
  2226  2671  2672    1
  2227  2671  2676    1
  2228  2672  2673    1
  2229  2672  2674    1
  2230  2672  2675    1
  2231  2677  2678    1
  2232  2677  2682    1
  2233  2678  2679    1
  2234  2678  2680    1
  2235  2678  2681    1
  2236  2683  2684    1
  2237  2683  2688    1
  2238  2684  2685    1
  2239  2684  2686    1
  2240  2684  2687    1
  2241  2689  2690    1
  2242  2689  2694    1
  2243  2690  2691    1
  2244  2690  2692    1
  2245  2690  2693    1
  2246  2695  2696    1
  2247  2695  2700    1
  2248  2696  2697    1
  2249  2696  2698    1
  2250  2696  2699    1
  2251  2701  2702    1
  2252  2701  2706    1
  2253  2702  2703    1
  2254  2702  2704    1
  2255  2702  2705    1
  2256  2707  2708    1
  2257  2707  2712    1
  2258  2708  2709    1
  2259  2708  2710    1
  2260  2708  2711    1
  2261  2713  2714    1
  2262  2713  2718    1
  2263  2714  2715    1
  2264  2714  2716    1
  2265  2714  2717    1
  2266  2719  2720    1
  2267  2719  2724    1
  2268  2720  2721    1
  2269  2720  2722    1
  2270  2720  2723    1
  2271  2725  2726    1
  2272  2725  2730    1
  2273  2726  2727    1
  2274  2726  2728    1
  2275  2726  2729    1
  2276  2731  2732    1
  2277  2731  2736    1
  2278  2732  2733    1
  2279  2732  2734    1
  2280  2732  2735    1
  2281  2737  2738    1
  2282  2737  2742    1
  2283  2738  2739    1
  2284  2738  2740    1
  2285  2738  2741    1
  2286  2743  2744    1
  2287  2743  2748    1
  2288  2744  2745    1
  2289  2744  2746    1
  2290  2744  2747    1
  2291  2749  2750    1
  2292  2749  2754    1
  2293  2750  2751    1
  2294  2750  2752    1
  2295  2750  2753    1
  2296  2755  2756    1
  2297  2755  2760    1
  2298  2756  2757    1
  2299  2756  2758    1
  2300  2756  2759    1
  2301  2761  2762    1
  2302  2761  2766    1
  2303  2762  2763    1
  2304  2762  2764    1
  2305  2762  2765    1
  2306  2767  2768    1
  2307  2767  2772    1
  2308  2768  2769    1
  2309  2768  2770    1
  2310  2768  2771    1
  2311  2773  2774    1
  2312  2773  2778    1
  2313  2774  2775    1
  2314  2774  2776    1
  2315  2774  2777    1
  2316  2779  2780    1
  2317  2779  2784    1
  2318  2780  2781    1
  2319  2780  2782    1
  2320  2780  2783    1
  2321  2785  2786    1
  2322  2785  2790    1
  2323  2786  2787    1
  2324  2786  2788    1
  2325  2786  2789    1
  2326  2791  2792    1
  2327  2791  2796    1
  2328  2792  2793    1
  2329  2792  2794    1
  2330  2792  2795    1
  2331  2797  2798    1
  2332  2797  2802    1
  2333  2798  2799    1
  2334  2798  2800    1
  2335  2798  2801    1
  2336  2803  2804    1
  2337  2803  2808    1
  2338  2804  2805    1
  2339  2804  2806    1
  2340  2804  2807    1
  2341  2809  2810    1
  2342  2809  2814    1
  2343  2810  2811    1
  2344  2810  2812    1
  2345  2810  2813    1
  2346  2815  2816    1
  2347  2815  2820    1
  2348  2816  2817    1
  2349  2816  2818    1
  2350  2816  2819    1
  2351  2821  2822    1
  2352  2821  2826    1
  2353  2822  2823    1
  2354  2822  2824    1
  2355  2822  2825    1
  2356  2827  2828    1
  2357  2827  2832    1
  2358  2828  2829    1
  2359  2828  2830    1
  2360  2828  2831    1
  2361  2833  2834    1
  2362  2833  2838    1
  2363  2834  2835    1
  2364  2834  2836    1
  2365  2834  2837    1
  2366  2839  2840    1
  2367  2839  2844    1
  2368  2840  2841    1
  2369  2840  2842    1
  2370  2840  2843    1
  2371  2845  2846    1
  2372  2845  2850    1
  2373  2846  2847    1
  2374  2846  2848    1
  2375  2846  2849    1
  2376  2851  2852    1
  2377  2851  2856    1
  2378  2852  2853    1
  2379  2852  2854    1
  2380  2852  2855    1
  2381  2857  2858    1
  2382  2857  2862    1
  2383  2858  2859    1
  2384  2858  2860    1
  2385  2858  2861    1
  2386  2863  2864    1
  2387  2863  2868    1
  2388  2864  2865    1
  2389  2864  2866    1
  2390  2864  2867    1
  2391  2869  2870    1
  2392  2869  2874    1
  2393  2870  2871    1
  2394  2870  2872    1
  2395  2870  2873    1
  2396  2875  2876    1
  2397  2875  2880    1
  2398  2876  2877    1
  2399  2876  2878    1
  2400  2876  2879    1
  2401  2881  2882    1
  2402  2881  2886    1
  2403  2882  2883    1
  2404  2882  2884    1
  2405  2882  2885    1
  2406  2887  2888    1
  2407  2887  2892    1
  2408  2888  2889    1
  2409  2888  2890    1
  2410  2888  2891    1
  2411  2893  2894    1
  2412  2893  2898    1
  2413  2894  2895    1
  2414  2894  2896    1
  2415  2894  2897    1
  2416  2899  2900    1
  2417  2899  2904    1
  2418  2900  2901    1
  2419  2900  2902    1
  2420  2900  2903    1
  2421  2905  2906    1
  2422  2905  2910    1
  2423  2906  2907    1
  2424  2906  2908    1
  2425  2906  2909    1
  2426  2911  2912    1
  2427  2911  2916    1
  2428  2912  2913    1
  2429  2912  2914    1
  2430  2912  2915    1
  2431  2917  2918    1
  2432  2917  2922    1
  2433  2918  2919    1
  2434  2918  2920    1
  2435  2918  2921    1
  2436  2923  2924    1
  2437  2923  2928    1
  2438  2924  2925    1
  2439  2924  2926    1
  2440  2924  2927    1
  2441  2929  2930    1
  2442  2929  2934    1
  2443  2930  2931    1
  2444  2930  2932    1
  2445  2930  2933    1
  2446  2935  2936    1
  2447  2935  2940    1
  2448  2936  2937    1
  2449  2936  2938    1
  2450  2936  2939    1
  2451  2941  2942    1
  2452  2941  2946    1
  2453  2942  2943    1
  2454  2942  2944    1
  2455  2942  2945    1
  2456  2947  2948    1
  2457  2947  2952    1
  2458  2948  2949    1
  2459  2948  2950    1
  2460  2948  2951    1
  2461  2953  2954    1
  2462  2953  2958    1
  2463  2954  2955    1
  2464  2954  2956    1
  2465  2954  2957    1
  2466  2959  2960    1
  2467  2959  2964    1
  2468  2960  2961    1
  2469  2960  2962    1
  2470  2960  2963    1
  2471  2965  2966    1
  2472  2965  2970    1
  2473  2966  2967    1
  2474  2966  2968    1
  2475  2966  2969    1
  2476  2971  2972    1
  2477  2971  2976    1
  2478  2972  2973    1
  2479  2972  2974    1
  2480  2972  2975    1
  2481  2977  2978    1
  2482  2977  2982    1
  2483  2978  2979    1
  2484  2978  2980    1
  2485  2978  2981    1
  2486  2983  2984    1
  2487  2983  2988    1
  2488  2984  2985    1
  2489  2984  2986    1
  2490  2984  2987    1
  2491  2989  2990    1
  2492  2989  2994    1
  2493  2990  2991    1
  2494  2990  2992    1
  2495  2990  2993    1
  2496  2995  2996    1
  2497  2995  3000    1
  2498  2996  2997    1
  2499  2996  2998    1
  2500  2996  2999    1
  2501  3001  3002    1
  2502  3001  3006    1
  2503  3002  3003    1
  2504  3002  3004    1
  2505  3002  3005    1
  2506  3007  3008    1
  2507  3007  3012    1
  2508  3008  3009    1
  2509  3008  3010    1
  2510  3008  3011    1
  2511  3013  3014    1
  2512  3013  3018    1
  2513  3014  3015    1
  2514  3014  3016    1
  2515  3014  3017    1
  2516  3019  3020    1
  2517  3019  3024    1
  2518  3020  3021    1
  2519  3020  3022    1
  2520  3020  3023    1
  2521  3025  3026    1
  2522  3025  3030    1
  2523  3026  3027    1
  2524  3026  3028    1
  2525  3026  3029    1
  2526  3031  3032    1
  2527  3031  3036    1
  2528  3032  3033    1
  2529  3032  3034    1
  2530  3032  3035    1
  2531  3037  3038    1
  2532  3037  3042    1
  2533  3038  3039    1
  2534  3038  3040    1
  2535  3038  3041    1
  2536  3043  3044    1
  2537  3043  3048    1
  2538  3044  3045    1
  2539  3044  3046    1
  2540  3044  3047    1
  2541  3049  3050    1
  2542  3049  3054    1
  2543  3050  3051    1
  2544  3050  3052    1
  2545  3050  3053    1
  2546  3055  3056    1
  2547  3055  3060    1
  2548  3056  3057    1
  2549  3056  3058    1
  2550  3056  3059    1
  2551  3061  3062    1
  2552  3061  3066    1
  2553  3062  3063    1
  2554  3062  3064    1
  2555  3062  3065    1
  2556  3067  3068    1
  2557  3067  3072    1
  2558  3068  3069    1
  2559  3068  3070    1
  2560  3068  3071    1
  2561  3073  3074    1
  2562  3073  3078    1
  2563  3074  3075    1
  2564  3074  3076    1
  2565  3074  3077    1
  2566  3079  3080    1
  2567  3079  3084    1
  2568  3080  3081    1
  2569  3080  3082    1
  2570  3080  3083    1
  2571  3085  3086    1
  2572  3085  3090    1
  2573  3086  3087    1
  2574  3086  3088    1
  2575  3086  3089    1
  2576  3091  3092    1
  2577  3091  3096    1
  2578  3092  3093    1
  2579  3092  3094    1
  2580  3092  3095    1
  2581  3097  3098    1
  2582  3097  3102    1
  2583  3098  3099    1
  2584  3098  3100    1
  2585  3098  3101    1
  2586  3103  3104    1
  2587  3103  3108    1
  2588  3104  3105    1
  2589  3104  3106    1
  2590  3104  3107    1
  2591  3109  3110    1
  2592  3109  3114    1
  2593  3110  3111    1
  2594  3110  3112    1
  2595  3110  3113    1
  2596  3115  3116    1
  2597  3115  3120    1
  2598  3116  3117    1
  2599  3116  3118    1
  2600  3116  3119    1
  2601  3121  3122    1
  2602  3121  3126    1
  2603  3122  3123    1
  2604  3122  3124    1
  2605  3122  3125    1
  2606  3127  3128    1
  2607  3127  3132    1
  2608  3128  3129    1
  2609  3128  3130    1
  2610  3128  3131    1
  2611  3133  3134    1
  2612  3133  3138    1
  2613  3134  3135    1
  2614  3134  3136    1
  2615  3134  3137    1
  2616  3139  3140    1
  2617  3139  3144    1
  2618  3140  3141    1
  2619  3140  3142    1
  2620  3140  3143    1
  2621  3145  3146    1
  2622  3145  3150    1
  2623  3146  3147    1
  2624  3146  3148    1
  2625  3146  3149    1
  2626  3151  3152    1
  2627  3151  3156    1
  2628  3152  3153    1
  2629  3152  3154    1
  2630  3152  3155    1
  2631  3157  3158    1
  2632  3157  3162    1
  2633  3158  3159    1
  2634  3158  3160    1
  2635  3158  3161    1
  2636  3163  3164    1
  2637  3163  3168    1
  2638  3164  3165    1
  2639  3164  3166    1
  2640  3164  3167    1
  2641  3169  3170    1
  2642  3169  3174    1
  2643  3170  3171    1
  2644  3170  3172    1
  2645  3170  3173    1
  2646  3175  3176    1
  2647  3175  3180    1
  2648  3176  3177    1
  2649  3176  3178    1
  2650  3176  3179    1
  2651  3181  3182    1
  2652  3181  3186    1
  2653  3182  3183    1
  2654  3182  3184    1
  2655  3182  3185    1
  2656  3187  3188    1
  2657  3187  3192    1
  2658  3188  3189    1
  2659  3188  3190    1
  2660  3188  3191    1
  2661  3193  3194    1
  2662  3193  3198    1
  2663  3194  3195    1
  2664  3194  3196    1
  2665  3194  3197    1
  2666  3199  3200    1
  2667  3199  3204    1
  2668  3200  3201    1
  2669  3200  3202    1
  2670  3200  3203    1
  2671  3205  3206    1
  2672  3205  3210    1
  2673  3206  3207    1
  2674  3206  3208    1
  2675  3206  3209    1
  2676  3211  3212    1
  2677  3211  3216    1
  2678  3212  3213    1
  2679  3212  3214    1
  2680  3212  3215    1
  2681  3217  3218    1
  2682  3217  3222    1
  2683  3218  3219    1
  2684  3218  3220    1
  2685  3218  3221    1
  2686  3223  3224    1
  2687  3223  3228    1
  2688  3224  3225    1
  2689  3224  3226    1
  2690  3224  3227    1
  2691  3229  3230    1
  2692  3229  3234    1
  2693  3230  3231    1
  2694  3230  3232    1
  2695  3230  3233    1
  2696  3235  3236    1
  2697  3235  3240    1
  2698  3236  3237    1
  2699  3236  3238    1
  2700  3236  3239    1
  2701  3241  3242    1
  2702  3241  3246    1
  2703  3242  3243    1
  2704  3242  3244    1
  2705  3242  3245    1
  2706  3247  3248    1
  2707  3247  3252    1
  2708  3248  3249    1
  2709  3248  3250    1
  2710  3248  3251    1
  2711  3253  3254    1
  2712  3253  3258    1
  2713  3254  3255    1
  2714  3254  3256    1
  2715  3254  3257    1
  2716  3259  3260    1
  2717  3259  3264    1
  2718  3260  3261    1
  2719  3260  3262    1
  2720  3260  3263    1
  2721  3265  3266    1
  2722  3265  3270    1
  2723  3266  3267    1
  2724  3266  3268    1
  2725  3266  3269    1
  2726  3271  3272    1
  2727  3271  3276    1
  2728  3272  3273    1
  2729  3272  3274    1
  2730  3272  3275    1
  2731  3277  3278    1
  2732  3277  3282    1
  2733  3278  3279    1
  2734  3278  3280    1
  2735  3278  3281    1
  2736  3283  3284    1
  2737  3283  3288    1
  2738  3284  3285    1
  2739  3284  3286    1
  2740  3284  3287    1
  2741  3289  3290    1
  2742  3289  3294    1
  2743  3290  3291    1
  2744  3290  3292    1
  2745  3290  3293    1
  2746  3295  3296    1
  2747  3295  3300    1
  2748  3296  3297    1
  2749  3296  3298    1
  2750  3296  3299    1
  2751  3301  3302    1
  2752  3301  3306    1
  2753  3302  3303    1
  2754  3302  3304    1
  2755  3302  3305    1
  2756  3307  3308    1
  2757  3307  3312    1
  2758  3308  3309    1
  2759  3308  3310    1
  2760  3308  3311    1
  2761  3313  3314    1
  2762  3313  3318    1
  2763  3314  3315    1
  2764  3314  3316    1
  2765  3314  3317    1
  2766  3319  3320    1
  2767  3319  3324    1
  2768  3320  3321    1
  2769  3320  3322    1
  2770  3320  3323    1
  2771  3325  3326    1
  2772  3325  3330    1
  2773  3326  3327    1
  2774  3326  3328    1
  2775  3326  3329    1
  2776  3331  3332    1
  2777  3331  3336    1
  2778  3332  3333    1
  2779  3332  3334    1
  2780  3332  3335    1
  2781  3337  3338    1
  2782  3337  3342    1
  2783  3338  3339    1
  2784  3338  3340    1
  2785  3338  3341    1
  2786  3343  3344    1
  2787  3343  3348    1
  2788  3344  3345    1
  2789  3344  3346    1
  2790  3344  3347    1
  2791  3349  3350    1
  2792  3349  3354    1
  2793  3350  3351    1
  2794  3350  3352    1
  2795  3350  3353    1
  2796  3355  3356    1
  2797  3355  3360    1
  2798  3356  3357    1
  2799  3356  3358    1
  2800  3356  3359    1
  2801  3361  3362    1
  2802  3361  3366    1
  2803  3362  3363    1
  2804  3362  3364    1
  2805  3362  3365    1
  2806  3367  3368    1
  2807  3367  3372    1
  2808  3368  3369    1
  2809  3368  3370    1
  2810  3368  3371    1
  2811  3373  3374    1
  2812  3373  3378    1
  2813  3374  3375    1
  2814  3374  3376    1
  2815  3374  3377    1
  2816  3379  3380    1
  2817  3379  3384    1
  2818  3380  3381    1
  2819  3380  3382    1
  2820  3380  3383    1
  2821  3385  3386    1
  2822  3385  3390    1
  2823  3386  3387    1
  2824  3386  3388    1
  2825  3386  3389    1
  2826  3391  3392    1
  2827  3391  3396    1
  2828  3392  3393    1
  2829  3392  3394    1
  2830  3392  3395    1
  2831  3397  3398    1
  2832  3397  3402    1
  2833  3398  3399    1
  2834  3398  3400    1
  2835  3398  3401    1
  2836  3403  3404    1
  2837  3403  3408    1
  2838  3404  3405    1
  2839  3404  3406    1
  2840  3404  3407    1
  2841  3409  3410    1
  2842  3409  3414    1
  2843  3410  3411    1
  2844  3410  3412    1
  2845  3410  3413    1
  2846  3415  3416    1
  2847  3415  3420    1
  2848  3416  3417    1
  2849  3416  3418    1
  2850  3416  3419    1
  2851  3421  3422    1
  2852  3421  3426    1
  2853  3422  3423    1
  2854  3422  3424    1
  2855  3422  3425    1
  2856  3427  3428    1
  2857  3427  3432    1
  2858  3428  3429    1
  2859  3428  3430    1
  2860  3428  3431    1
  2861  3433  3434    1
  2862  3433  3438    1
  2863  3434  3435    1
  2864  3434  3436    1
  2865  3434  3437    1
  2866  3439  3440    1
  2867  3439  3444    1
  2868  3440  3441    1
  2869  3440  3442    1
  2870  3440  3443    1
  2871  3445  3446    1
  2872  3445  3450    1
  2873  3446  3447    1
  2874  3446  3448    1
  2875  3446  3449    1
  2876  3451  3452    1
  2877  3451  3456    1
  2878  3452  3453    1
  2879  3452  3454    1
  2880  3452  3455    1
  2881  3457  3458    1
  2882  3457  3462    1
  2883  3458  3459    1
  2884  3458  3460    1
  2885  3458  3461    1
  2886  3463  3464    1
  2887  3463  3468    1
  2888  3464  3465    1
  2889  3464  3466    1
  2890  3464  3467    1
  2891  3469  3470    1
  2892  3469  3474    1
  2893  3470  3471    1
  2894  3470  3472    1
  2895  3470  3473    1
  2896  3475  3476    1
  2897  3475  3480    1
  2898  3476  3477    1
  2899  3476  3478    1
  2900  3476  3479    1
  2901  3481  3482    1
  2902  3481  3486    1
  2903  3482  3483    1
  2904  3482  3484    1
  2905  3482  3485    1
  2906  3487  3488    1
  2907  3487  3492    1
  2908  3488  3489    1
  2909  3488  3490    1
  2910  3488  3491    1
  2911  3493  3494    1
  2912  3493  3498    1
  2913  3494  3495    1
  2914  3494  3496    1
  2915  3494  3497    1
  2916  3499  3500    1
  2917  3499  3504    1
  2918  3500  3501    1
  2919  3500  3502    1
  2920  3500  3503    1
  2921  3505  3506    1
  2922  3505  3510    1
  2923  3506  3507    1
  2924  3506  3508    1
  2925  3506  3509    1
  2926  3511  3512    1
  2927  3511  3516    1
  2928  3512  3513    1
  2929  3512  3514    1
  2930  3512  3515    1
  2931  3517  3518    1
  2932  3517  3522    1
  2933  3518  3519    1
  2934  3518  3520    1
  2935  3518  3521    1
  2936  3523  3524    1
  2937  3523  3528    1
  2938  3524  3525    1
  2939  3524  3526    1
  2940  3524  3527    1
  2941  3529  3530    1
  2942  3529  3534    1
  2943  3530  3531    1
  2944  3530  3532    1
  2945  3530  3533    1
  2946  3535  3536    1
  2947  3535  3540    1
  2948  3536  3537    1
  2949  3536  3538    1
  2950  3536  3539    1
  2951  3541  3542    1
  2952  3541  3546    1
  2953  3542  3543    1
  2954  3542  3544    1
  2955  3542  3545    1
  2956  3547  3548    1
  2957  3547  3552    1
  2958  3548  3549    1
  2959  3548  3550    1
  2960  3548  3551    1
  2961  3553  3554    1
  2962  3553  3558    1
  2963  3554  3555    1
  2964  3554  3556    1
  2965  3554  3557    1
  2966  3559  3560    1
  2967  3559  3564    1
  2968  3560  3561    1
  2969  3560  3562    1
  2970  3560  3563    1
  2971  3565  3566    1
  2972  3565  3570    1
  2973  3566  3567    1
  2974  3566  3568    1
  2975  3566  3569    1
  2976  3571  3572    1
  2977  3571  3576    1
  2978  3572  3573    1
  2979  3572  3574    1
  2980  3572  3575    1
  2981  3577  3578    1
  2982  3577  3582    1
  2983  3578  3579    1
  2984  3578  3580    1
  2985  3578  3581    1
  2986  3583  3584    1
  2987  3583  3588    1
  2988  3584  3585    1
  2989  3584  3586    1
  2990  3584  3587    1
  2991  3589  3590    1
  2992  3589  3594    1
  2993  3590  3591    1
  2994  3590  3592    1
  2995  3590  3593    1
  2996  3595  3596    1
  2997  3595  3600    1
  2998  3596  3597    1
  2999  3596  3598    1
  3000  3596  3599    1
  3001  3601  3602    1
  3002  3601  3606    1
  3003  3602  3603    1
  3004  3602  3604    1
  3005  3602  3605    1
  3006  3607  3608    1
  3007  3607  3612    1
  3008  3608  3609    1
  3009  3608  3610    1
  3010  3608  3611    1
  3011  3613  3614    1
  3012  3613  3618    1
  3013  3614  3615    1
  3014  3614  3616    1
  3015  3614  3617    1
  3016  3619  3620    1
  3017  3619  3624    1
  3018  3620  3621    1
  3019  3620  3622    1
  3020  3620  3623    1
  3021  3625  3626    1
  3022  3625  3630    1
  3023  3626  3627    1
  3024  3626  3628    1
  3025  3626  3629    1
  3026  3631  3632    1
  3027  3631  3636    1
  3028  3632  3633    1
  3029  3632  3634    1
  3030  3632  3635    1
  3031  3637  3638    1
  3032  3637  3642    1
  3033  3638  3639    1
  3034  3638  3640    1
  3035  3638  3641    1
  3036  3643  3644    1
  3037  3643  3648    1
  3038  3644  3645    1
  3039  3644  3646    1
  3040  3644  3647    1
  3041  3649  3650    1
  3042  3649  3654    1
  3043  3650  3651    1
  3044  3650  3652    1
  3045  3650  3653    1
  3046  3655  3656    1
  3047  3655  3660    1
  3048  3656  3657    1
  3049  3656  3658    1
  3050  3656  3659    1
  3051  3661  3662    1
  3052  3661  3666    1
  3053  3662  3663    1
  3054  3662  3664    1
  3055  3662  3665    1
  3056  3667  3668    1
  3057  3667  3672    1
  3058  3668  3669    1
  3059  3668  3670    1
  3060  3668  3671    1
  3061  3673  3674    1
  3062  3673  3678    1
  3063  3674  3675    1
  3064  3674  3676    1
  3065  3674  3677    1
  3066  3679  3680    1
  3067  3679  3684    1
  3068  3680  3681    1
  3069  3680  3682    1
  3070  3680  3683    1
  3071  3685  3686    1
  3072  3685  3690    1
  3073  3686  3687    1
  3074  3686  3688    1
  3075  3686  3689    1
  3076  3691  3692    1
  3077  3691  3696    1
  3078  3692  3693    1
  3079  3692  3694    1
  3080  3692  3695    1
  3081  3697  3698    1
  3082  3697  3702    1
  3083  3698  3699    1
  3084  3698  3700    1
  3085  3698  3701    1
  3086  3703  3704    1
  3087  3703  3708    1
  3088  3704  3705    1
  3089  3704  3706    1
  3090  3704  3707    1
  3091  3709  3710    1
  3092  3709  3714    1
  3093  3710  3711    1
  3094  3710  3712    1
  3095  3710  3713    1
  3096  3715  3716    1
  3097  3715  3720    1
  3098  3716  3717    1
  3099  3716  3718    1
  3100  3716  3719    1
  3101  3721  3722    1
  3102  3721  3726    1
  3103  3722  3723    1
  3104  3722  3724    1
  3105  3722  3725    1
  3106  3727  3728    1
  3107  3727  3732    1
  3108  3728  3729    1
  3109  3728  3730    1
  3110  3728  3731    1
  3111  3733  3734    1
  3112  3733  3738    1
  3113  3734  3735    1
  3114  3734  3736    1
  3115  3734  3737    1
  3116  3739  3740    1
  3117  3739  3744    1
  3118  3740  3741    1
  3119  3740  3742    1
  3120  3740  3743    1
  3121  3745  3746    1
  3122  3745  3750    1
  3123  3746  3747    1
  3124  3746  3748    1
  3125  3746  3749    1
  3126  3751  3752    1
  3127  3751  3756    1
  3128  3752  3753    1
  3129  3752  3754    1
  3130  3752  3755    1
  3131  3757  3758    1
  3132  3757  3762    1
  3133  3758  3759    1
  3134  3758  3760    1
  3135  3758  3761    1
  3136  3763  3764    1
  3137  3763  3768    1
  3138  3764  3765    1
  3139  3764  3766    1
  3140  3764  3767    1
  3141  3769  3770    1
  3142  3769  3774    1
  3143  3770  3771    1
  3144  3770  3772    1
  3145  3770  3773    1
  3146  3775  3776    1
  3147  3775  3780    1
  3148  3776  3777    1
  3149  3776  3778    1
  3150  3776  3779    1
  3151  3781  3782    1
  3152  3781  3786    1
  3153  3782  3783    1
  3154  3782  3784    1
  3155  3782  3785    1
  3156  3787  3788    1
  3157  3787  3792    1
  3158  3788  3789    1
  3159  3788  3790    1
  3160  3788  3791    1
  3161  3793  3794    1
  3162  3793  3798    1
  3163  3794  3795    1
  3164  3794  3796    1
  3165  3794  3797    1
  3166  3799  3800    1
  3167  3799  3804    1
  3168  3800  3801    1
  3169  3800  3802    1
  3170  3800  3803    1
  3171  3805  3806    1
  3172  3805  3810    1
  3173  3806  3807    1
  3174  3806  3808    1
  3175  3806  3809    1
  3176  3811  3812    1
  3177  3811  3816    1
  3178  3812  3813    1
  3179  3812  3814    1
  3180  3812  3815    1
  3181  3817  3818    1
  3182  3817  3822    1
  3183  3818  3819    1
  3184  3818  3820    1
  3185  3818  3821    1
  3186  3823  3824    1
  3187  3823  3828    1
  3188  3824  3825    1
  3189  3824  3826    1
  3190  3824  3827    1
  3191  3829  3830    1
  3192  3829  3834    1
  3193  3830  3831    1
  3194  3830  3832    1
  3195  3830  3833    1
  3196  3835  3836    1
  3197  3835  3840    1
  3198  3836  3837    1
  3199  3836  3838    1
  3200  3836  3839    1
  3201  3841  3842    1
  3202  3841  3846    1
  3203  3842  3843    1
  3204  3842  3844    1
  3205  3842  3845    1
  3206  3847  3848    1
  3207  3847  3852    1
  3208  3848  3849    1
  3209  3848  3850    1
  3210  3848  3851    1
  3211  3853  3854    1
  3212  3853  3858    1
  3213  3854  3855    1
  3214  3854  3856    1
  3215  3854  3857    1
  3216  3859  3860    1
  3217  3859  3864    1
  3218  3860  3861    1
  3219  3860  3862    1
  3220  3860  3863    1
  3221  3865  3866    1
  3222  3865  3870    1
  3223  3866  3867    1
  3224  3866  3868    1
  3225  3866  3869    1
  3226  3871  3872    1
  3227  3871  3876    1
  3228  3872  3873    1
  3229  3872  3874    1
  3230  3872  3875    1
  3231  3877  3878    1
  3232  3877  3882    1
  3233  3878  3879    1
  3234  3878  3880    1
  3235  3878  3881    1
  3236  3883  3884    1
  3237  3883  3888    1
  3238  3884  3885    1
  3239  3884  3886    1
  3240  3884  3887    1
  3241  3889  3890    1
  3242  3889  3894    1
  3243  3890  3891    1
  3244  3890  3892    1
  3245  3890  3893    1
  3246  3895  3896    1
  3247  3895  3900    1
  3248  3896  3897    1
  3249  3896  3898    1
  3250  3896  3899    1
  3251  3901  3902    1
  3252  3901  3906    1
  3253  3902  3903    1
  3254  3902  3904    1
  3255  3902  3905    1
  3256  3907  3908    1
  3257  3907  3912    1
  3258  3908  3909    1
  3259  3908  3910    1
  3260  3908  3911    1
  3261  3913  3914    1
  3262  3913  3918    1
  3263  3914  3915    1
  3264  3914  3916    1
  3265  3914  3917    1
  3266  3919  3920    1
  3267  3919  3924    1
  3268  3920  3921    1
  3269  3920  3922    1
  3270  3920  3923    1
  3271  3925  3926    1
  3272  3925  3930    1
  3273  3926  3927    1
  3274  3926  3928    1
  3275  3926  3929    1
  3276  3931  3932    1
  3277  3931  3936    1
  3278  3932  3933    1
  3279  3932  3934    1
  3280  3932  3935    1
  3281  3937  3938    1
  3282  3937  3942    1
  3283  3938  3939    1
  3284  3938  3940    1
  3285  3938  3941    1
  3286  3943  3944    1
  3287  3943  3948    1
  3288  3944  3945    1
  3289  3944  3946    1
  3290  3944  3947    1
  3291  3949  3950    1
  3292  3949  3954    1
  3293  3950  3951    1
  3294  3950  3952    1
  3295  3950  3953    1
  3296  3955  3956    1
  3297  3955  3960    1
  3298  3956  3957    1
  3299  3956  3958    1
  3300  3956  3959    1
  3301  3961  3962    1
  3302  3961  3966    1
  3303  3962  3963    1
  3304  3962  3964    1
  3305  3962  3965    1
  3306  3967  3968    1
  3307  3967  3972    1
  3308  3968  3969    1
  3309  3968  3970    1
  3310  3968  3971    1
  3311  3973  3974    1
  3312  3973  3978    1
  3313  3974  3975    1
  3314  3974  3976    1
  3315  3974  3977    1
  3316  3979  3980    1
  3317  3979  3984    1
  3318  3980  3981    1
  3319  3980  3982    1
  3320  3980  3983    1
  3321  3985  3986    1
  3322  3985  3990    1
  3323  3986  3987    1
  3324  3986  3988    1
  3325  3986  3989    1
  3326  3991  3992    1
  3327  3991  3996    1
  3328  3992  3993    1
  3329  3992  3994    1
  3330  3992  3995    1
  3331  3997  3998    1
  3332  3997  4002    1
  3333  3998  3999    1
  3334  3998  4000    1
  3335  3998  4001    1
  3336  4003  4004    1
  3337  4003  4008    1
  3338  4004  4005    1
  3339  4004  4006    1
  3340  4004  4007    1
  3341  4009  4010    1
  3342  4009  4014    1
  3343  4010  4011    1
  3344  4010  4012    1
  3345  4010  4013    1
  3346  4015  4016    1
  3347  4015  4020    1
  3348  4016  4017    1
  3349  4016  4018    1
  3350  4016  4019    1
  3351  4021  4022    1
  3352  4021  4026    1
  3353  4022  4023    1
  3354  4022  4024    1
  3355  4022  4025    1
  3356  4027  4028    1
  3357  4027  4032    1
  3358  4028  4029    1
  3359  4028  4030    1
  3360  4028  4031    1
  3361  4033  4034    1
  3362  4033  4038    1
  3363  4034  4035    1
  3364  4034  4036    1
  3365  4034  4037    1
  3366  4039  4040    1
  3367  4039  4044    1
  3368  4040  4041    1
  3369  4040  4042    1
  3370  4040  4043    1
  3371  4045  4046    1
  3372  4045  4050    1
  3373  4046  4047    1
  3374  4046  4048    1
  3375  4046  4049    1
  3376  4051  4052    1
  3377  4051  4056    1
  3378  4052  4053    1
  3379  4052  4054    1
  3380  4052  4055    1
  3381  4057  4058    1
  3382  4057  4062    1
  3383  4058  4059    1
  3384  4058  4060    1
  3385  4058  4061    1
  3386  4063  4064    1
  3387  4063  4068    1
  3388  4064  4065    1
  3389  4064  4066    1
  3390  4064  4067    1
  3391  4069  4070    1
  3392  4069  4074    1
  3393  4070  4071    1
  3394  4070  4072    1
  3395  4070  4073    1
  3396  4075  4076    1
  3397  4075  4080    1
  3398  4076  4077    1
  3399  4076  4078    1
  3400  4076  4079    1
  3401  4081  4082    1
  3402  4081  4086    1
  3403  4082  4083    1
  3404  4082  4084    1
  3405  4082  4085    1
  3406  4087  4088    1
  3407  4087  4092    1
  3408  4088  4089    1
  3409  4088  4090    1
  3410  4088  4091    1
  3411  4093  4094    1
  3412  4093  4098    1
  3413  4094  4095    1
  3414  4094  4096    1
  3415  4094  4097    1
  3416  4099  4100    1
  3417  4099  4104    1
  3418  4100  4101    1
  3419  4100  4102    1
  3420  4100  4103    1
  3421  4105  4106    1
  3422  4105  4110    1
  3423  4106  4107    1
  3424  4106  4108    1
  3425  4106  4109    1
  3426  4111  4112    1
  3427  4111  4116    1
  3428  4112  4113    1
  3429  4112  4114    1
  3430  4112  4115    1
  3431  4117  4118    1
  3432  4117  4122    1
  3433  4118  4119    1
  3434  4118  4120    1
  3435  4118  4121    1
  3436  4123  4124    1
  3437  4123  4128    1
  3438  4124  4125    1
  3439  4124  4126    1
  3440  4124  4127    1
  3441  4129  4130    1
  3442  4129  4134    1
  3443  4130  4131    1
  3444  4130  4132    1
  3445  4130  4133    1
  3446  4135  4136    1
  3447  4135  4140    1
  3448  4136  4137    1
  3449  4136  4138    1
  3450  4136  4139    1
  3451  4141  4142    1
  3452  4141  4146    1
  3453  4142  4143    1
  3454  4142  4144    1
  3455  4142  4145    1
  3456  4147  4148    1
  3457  4147  4152    1
  3458  4148  4149    1
  3459  4148  4150    1
  3460  4148  4151    1
  3461  4153  4154    1
  3462  4153  4158    1
  3463  4154  4155    1
  3464  4154  4156    1
  3465  4154  4157    1
  3466  4159  4160    1
  3467  4159  4164    1
  3468  4160  4161    1
  3469  4160  4162    1
  3470  4160  4163    1
  3471  4165  4166    1
  3472  4165  4170    1
  3473  4166  4167    1
  3474  4166  4168    1
  3475  4166  4169    1
  3476  4171  4172    1
  3477  4171  4176    1
  3478  4172  4173    1
  3479  4172  4174    1
  3480  4172  4175    1
  3481  4177  4178    1
  3482  4177  4182    1
  3483  4178  4179    1
  3484  4178  4180    1
  3485  4178  4181    1
  3486  4183  4184    1
  3487  4183  4188    1
  3488  4184  4185    1
  3489  4184  4186    1
  3490  4184  4187    1
  3491  4189  4190    1
  3492  4189  4194    1
  3493  4190  4191    1
  3494  4190  4192    1
  3495  4190  4193    1
  3496  4195  4196    1
  3497  4195  4200    1
  3498  4196  4197    1
  3499  4196  4198    1
  3500  4196  4199    1
  3501  4201  4202    1
  3502  4201  4206    1
  3503  4202  4203    1
  3504  4202  4204    1
  3505  4202  4205    1
  3506  4207  4208    1
  3507  4207  4212    1
  3508  4208  4209    1
  3509  4208  4210    1
  3510  4208  4211    1
  3511  4213  4214    1
  3512  4213  4218    1
  3513  4214  4215    1
  3514  4214  4216    1
  3515  4214  4217    1
  3516  4219  4220    1
  3517  4219  4224    1
  3518  4220  4221    1
  3519  4220  4222    1
  3520  4220  4223    1
  3521  4225  4226    1
  3522  4225  4230    1
  3523  4226  4227    1
  3524  4226  4228    1
  3525  4226  4229    1
  3526  4231  4232    1
  3527  4231  4236    1
  3528  4232  4233    1
  3529  4232  4234    1
  3530  4232  4235    1
  3531  4237  4238    1
  3532  4237  4242    1
  3533  4238  4239    1
  3534  4238  4240    1
  3535  4238  4241    1
  3536  4243  4244    1
  3537  4243  4248    1
  3538  4244  4245    1
  3539  4244  4246    1
  3540  4244  4247    1
  3541  4249  4250    1
  3542  4249  4254    1
  3543  4250  4251    1
  3544  4250  4252    1
  3545  4250  4253    1
  3546  4255  4256    1
  3547  4255  4260    1
  3548  4256  4257    1
  3549  4256  4258    1
  3550  4256  4259    1
  3551  4261  4262    1
  3552  4261  4266    1
  3553  4262  4263    1
  3554  4262  4264    1
  3555  4262  4265    1
  3556  4267  4268    1
  3557  4267  4272    1
  3558  4268  4269    1
  3559  4268  4270    1
  3560  4268  4271    1
  3561  4273  4274    1
  3562  4273  4278    1
  3563  4274  4275    1
  3564  4274  4276    1
  3565  4274  4277    1
  3566  4279  4280    1
  3567  4279  4284    1
  3568  4280  4281    1
  3569  4280  4282    1
  3570  4280  4283    1
  3571  4285  4286    1
  3572  4285  4290    1
  3573  4286  4287    1
  3574  4286  4288    1
  3575  4286  4289    1
  3576  4291  4292    1
  3577  4291  4296    1
  3578  4292  4293    1
  3579  4292  4294    1
  3580  4292  4295    1
  3581  4297  4298    1
  3582  4297  4302    1
  3583  4298  4299    1
  3584  4298  4300    1
  3585  4298  4301    1
  3586  4303  4304    1
  3587  4303  4308    1
  3588  4304  4305    1
  3589  4304  4306    1
  3590  4304  4307    1
  3591  4309  4310    1
  3592  4309  4314    1
  3593  4310  4311    1
  3594  4310  4312    1
  3595  4310  4313    1
  3596  4315  4316    1
  3597  4315  4320    1
  3598  4316  4317    1
  3599  4316  4318    1
  3600  4316  4319    1
  3601  4321  4322    1
  3602  4321  4326    1
  3603  4322  4323    1
  3604  4322  4324    1
  3605  4322  4325    1
  3606  4327  4328    1
  3607  4327  4332    1
  3608  4328  4329    1
  3609  4328  4330    1
  3610  4328  4331    1
  3611  4333  4334    1
  3612  4333  4338    1
  3613  4334  4335    1
  3614  4334  4336    1
  3615  4334  4337    1
  3616  4339  4340    1
  3617  4339  4344    1
  3618  4340  4341    1
  3619  4340  4342    1
  3620  4340  4343    1
  3621  4345  4346    1
  3622  4345  4350    1
  3623  4346  4347    1
  3624  4346  4348    1
  3625  4346  4349    1
  3626  4351  4352    1
  3627  4351  4356    1
  3628  4352  4353    1
  3629  4352  4354    1
  3630  4352  4355    1
  3631  4357  4358    1
  3632  4357  4362    1
  3633  4358  4359    1
  3634  4358  4360    1
  3635  4358  4361    1
  3636  4363  4364    1
  3637  4363  4368    1
  3638  4364  4365    1
  3639  4364  4366    1
  3640  4364  4367    1
  3641  4369  4370    1
  3642  4369  4374    1
  3643  4370  4371    1
  3644  4370  4372    1
  3645  4370  4373    1
  3646  4375  4376    1
  3647  4375  4380    1
  3648  4376  4377    1
  3649  4376  4378    1
  3650  4376  4379    1
  3651  4381  4382    1
  3652  4381  4386    1
  3653  4382  4383    1
  3654  4382  4384    1
  3655  4382  4385    1
  3656  4387  4388    1
  3657  4387  4392    1
  3658  4388  4389    1
  3659  4388  4390    1
  3660  4388  4391    1
  3661  4393  4394    1
  3662  4393  4398    1
  3663  4394  4395    1
  3664  4394  4396    1
  3665  4394  4397    1
  3666  4399  4400    1
  3667  4399  4404    1
  3668  4400  4401    1
  3669  4400  4402    1
  3670  4400  4403    1
  3671  4405  4406    1
  3672  4405  4410    1
  3673  4406  4407    1
  3674  4406  4408    1
  3675  4406  4409    1
  3676  4411  4412    1
  3677  4411  4416    1
  3678  4412  4413    1
  3679  4412  4414    1
  3680  4412  4415    1
  3681  4417  4418    1
  3682  4417  4422    1
  3683  4418  4419    1
  3684  4418  4420    1
  3685  4418  4421    1
  3686  4423  4424    1
  3687  4423  4428    1
  3688  4424  4425    1
  3689  4424  4426    1
  3690  4424  4427    1
  3691  4429  4430    1
  3692  4429  4434    1
  3693  4430  4431    1
  3694  4430  4432    1
  3695  4430  4433    1
  3696  4435  4436    1
  3697  4435  4440    1
  3698  4436  4437    1
  3699  4436  4438    1
  3700  4436  4439    1
  3701  4441  4442    1
  3702  4441  4446    1
  3703  4442  4443    1
  3704  4442  4444    1
  3705  4442  4445    1
  3706  4447  4448    1
  3707  4447  4452    1
  3708  4448  4449    1
  3709  4448  4450    1
  3710  4448  4451    1
  3711  4453  4454    1
  3712  4453  4458    1
  3713  4454  4455    1
  3714  4454  4456    1
  3715  4454  4457    1
  3716  4459  4460    1
  3717  4459  4464    1
  3718  4460  4461    1
  3719  4460  4462    1
  3720  4460  4463    1
  3721  4465  4466    1
  3722  4465  4470    1
  3723  4466  4467    1
  3724  4466  4468    1
  3725  4466  4469    1
  3726  4471  4472    1
  3727  4471  4476    1
  3728  4472  4473    1
  3729  4472  4474    1
  3730  4472  4475    1
  3731  4477  4478    1
  3732  4477  4482    1
  3733  4478  4479    1
  3734  4478  4480    1
  3735  4478  4481    1
  3736  4483  4484    1
  3737  4483  4488    1
  3738  4484  4485    1
  3739  4484  4486    1
  3740  4484  4487    1
  3741  4489  4490    1
  3742  4489  4494    1
  3743  4490  4491    1
  3744  4490  4492    1
  3745  4490  4493    1
  3746  4495  4496    1
  3747  4495  4500    1
  3748  4496  4497    1
  3749  4496  4498    1
  3750  4496  4499    1
  3751  4501  4502    1
  3752  4501  4506    1
  3753  4502  4503    1
  3754  4502  4504    1
  3755  4502  4505    1
  3756  4507  4508    1
  3757  4507  4512    1
  3758  4508  4509    1
  3759  4508  4510    1
  3760  4508  4511    1
  3761  4513  4514    1
  3762  4513  4518    1
  3763  4514  4515    1
  3764  4514  4516    1
  3765  4514  4517    1
  3766  4519  4520    1
  3767  4519  4524    1
  3768  4520  4521    1
  3769  4520  4522    1
  3770  4520  4523    1
  3771  4525  4526    1
  3772  4525  4530    1
  3773  4526  4527    1
  3774  4526  4528    1
  3775  4526  4529    1
  3776  4531  4532    1
  3777  4531  4536    1
  3778  4532  4533    1
  3779  4532  4534    1
  3780  4532  4535    1
  3781  4537  4538    1
  3782  4537  4542    1
  3783  4538  4539    1
  3784  4538  4540    1
  3785  4538  4541    1
  3786  4543  4544    1
  3787  4543  4548    1
  3788  4544  4545    1
  3789  4544  4546    1
  3790  4544  4547    1
  3791  4549  4550    1
  3792  4549  4554    1
  3793  4550  4551    1
  3794  4550  4552    1
  3795  4550  4553    1
  3796  4555  4556    1
  3797  4555  4560    1
  3798  4556  4557    1
  3799  4556  4558    1
  3800  4556  4559    1
  3801  4561  4562    1
  3802  4561  4566    1
  3803  4562  4563    1
  3804  4562  4564    1
  3805  4562  4565    1
  3806  4567  4568    1
  3807  4567  4572    1
  3808  4568  4569    1
  3809  4568  4570    1
  3810  4568  4571    1
  3811  4573  4574    1
  3812  4573  4578    1
  3813  4574  4575    1
  3814  4574  4576    1
  3815  4574  4577    1
  3816  4579  4580    1
  3817  4579  4584    1
  3818  4580  4581    1
  3819  4580  4582    1
  3820  4580  4583    1
  3821  4585  4586    1
  3822  4585  4590    1
  3823  4586  4587    1
  3824  4586  4588    1
  3825  4586  4589    1
  3826  4591  4592    1
  3827  4591  4596    1
  3828  4592  4593    1
  3829  4592  4594    1
  3830  4592  4595    1
  3831  4597  4598    1
  3832  4597  4602    1
  3833  4598  4599    1
  3834  4598  4600    1
  3835  4598  4601    1
  3836  4603  4604    1
  3837  4603  4608    1
  3838  4604  4605    1
  3839  4604  4606    1
  3840  4604  4607    1
  3841  4609  4610    1
  3842  4609  4614    1
  3843  4610  4611    1
  3844  4610  4612    1
  3845  4610  4613    1
  3846  4615  4616    1
  3847  4615  4620    1
  3848  4616  4617    1
  3849  4616  4618    1
  3850  4616  4619    1
  3851  4621  4622    1
  3852  4621  4626    1
  3853  4622  4623    1
  3854  4622  4624    1
  3855  4622  4625    1
  3856  4627  4628    1
  3857  4627  4632    1
  3858  4628  4629    1
  3859  4628  4630    1
  3860  4628  4631    1
  3861  4633  4634    1
  3862  4633  4638    1
  3863  4634  4635    1
  3864  4634  4636    1
  3865  4634  4637    1
  3866  4639  4640    1
  3867  4639  4644    1
  3868  4640  4641    1
  3869  4640  4642    1
  3870  4640  4643    1
  3871  4645  4646    1
  3872  4645  4650    1
  3873  4646  4647    1
  3874  4646  4648    1
  3875  4646  4649    1
  3876  4651  4652    1
  3877  4651  4656    1
  3878  4652  4653    1
  3879  4652  4654    1
  3880  4652  4655    1
  3881  4657  4658    1
  3882  4657  4662    1
  3883  4658  4659    1
  3884  4658  4660    1
  3885  4658  4661    1
  3886  4663  4664    1
  3887  4663  4668    1
  3888  4664  4665    1
  3889  4664  4666    1
  3890  4664  4667    1
  3891  4669  4670    1
  3892  4669  4674    1
  3893  4670  4671    1
  3894  4670  4672    1
  3895  4670  4673    1
  3896  4675  4676    1
  3897  4675  4680    1
  3898  4676  4677    1
  3899  4676  4678    1
  3900  4676  4679    1
  3901  4681  4682    1
  3902  4681  4686    1
  3903  4682  4683    1
  3904  4682  4684    1
  3905  4682  4685    1
  3906  4687  4688    1
  3907  4687  4692    1
  3908  4688  4689    1
  3909  4688  4690    1
  3910  4688  4691    1
  3911  4693  4694    1
  3912  4693  4698    1
  3913  4694  4695    1
  3914  4694  4696    1
  3915  4694  4697    1
  3916  4699  4700    1
  3917  4699  4704    1
  3918  4700  4701    1
  3919  4700  4702    1
  3920  4700  4703    1
  3921  4705  4706    1
  3922  4705  4710    1
  3923  4706  4707    1
  3924  4706  4708    1
  3925  4706  4709    1
  3926  4711  4712    1
  3927  4711  4716    1
  3928  4712  4713    1
  3929  4712  4714    1
  3930  4712  4715    1
  3931  4717  4718    1
  3932  4717  4722    1
  3933  4718  4719    1
  3934  4718  4720    1
  3935  4718  4721    1
  3936  4723  4724    1
  3937  4723  4728    1
  3938  4724  4725    1
  3939  4724  4726    1
  3940  4724  4727    1
  3941  4729  4730    1
  3942  4729  4734    1
  3943  4730  4731    1
  3944  4730  4732    1
  3945  4730  4733    1
  3946  4735  4736    1
  3947  4735  4740    1
  3948  4736  4737    1
  3949  4736  4738    1
  3950  4736  4739    1
  3951  4741  4742    1
  3952  4741  4746    1
  3953  4742  4743    1
  3954  4742  4744    1
  3955  4742  4745    1
  3956  4747  4748    1
  3957  4747  4752    1
  3958  4748  4749    1
  3959  4748  4750    1
  3960  4748  4751    1
  3961  4753  4754    1
  3962  4753  4758    1
  3963  4754  4755    1
  3964  4754  4756    1
  3965  4754  4757    1
  3966  4759  4760    1
  3967  4759  4764    1
  3968  4760  4761    1
  3969  4760  4762    1
  3970  4760  4763    1
  3971  4765  4766    1
  3972  4765  4770    1
  3973  4766  4767    1
  3974  4766  4768    1
  3975  4766  4769    1
  3976  4771  4772    1
  3977  4771  4776    1
  3978  4772  4773    1
  3979  4772  4774    1
  3980  4772  4775    1
  3981  4777  4778    1
  3982  4777  4782    1
  3983  4778  4779    1
  3984  4778  4780    1
  3985  4778  4781    1
  3986  4783  4784    1
  3987  4783  4788    1
  3988  4784  4785    1
  3989  4784  4786    1
  3990  4784  4787    1
  3991  4789  4790    1
  3992  4789  4794    1
  3993  4790  4791    1
  3994  4790  4792    1
  3995  4790  4793    1
  3996  4795  4796    1
  3997  4795  4800    1
  3998  4796  4797    1
  3999  4796  4798    1
  4000  4796  4799    1
  4001  4801  4802    1
  4002  4801  4806    1
  4003  4802  4803    1
  4004  4802  4804    1
  4005  4802  4805    1
  4006  4807  4808    1
  4007  4807  4812    1
  4008  4808  4809    1
  4009  4808  4810    1
  4010  4808  4811    1
  4011  4813  4814    1
  4012  4813  4818    1
  4013  4814  4815    1
  4014  4814  4816    1
  4015  4814  4817    1
  4016  4819  4820    1
  4017  4819  4824    1
  4018  4820  4821    1
  4019  4820  4822    1
  4020  4820  4823    1
  4021  4825  4826    1
  4022  4825  4830    1
  4023  4826  4827    1
  4024  4826  4828    1
  4025  4826  4829    1
  4026  4831  4832    1
  4027  4831  4836    1
  4028  4832  4833    1
  4029  4832  4834    1
  4030  4832  4835    1
  4031  4837  4838    1
  4032  4837  4842    1
  4033  4838  4839    1
  4034  4838  4840    1
  4035  4838  4841    1
  4036  4843  4844    1
  4037  4843  4848    1
  4038  4844  4845    1
  4039  4844  4846    1
  4040  4844  4847    1
  4041  4849  4850    1
  4042  4849  4854    1
  4043  4850  4851    1
  4044  4850  4852    1
  4045  4850  4853    1
  4046  4855  4856    1
  4047  4855  4860    1
  4048  4856  4857    1
  4049  4856  4858    1
  4050  4856  4859    1
  4051  4861  4862    1
  4052  4861  4866    1
  4053  4862  4863    1
  4054  4862  4864    1
  4055  4862  4865    1
  4056  4867  4868    1
  4057  4867  4872    1
  4058  4868  4869    1
  4059  4868  4870    1
  4060  4868  4871    1
  4061  4873  4874    1
  4062  4873  4878    1
  4063  4874  4875    1
  4064  4874  4876    1
  4065  4874  4877    1
  4066  4879  4880    1
  4067  4879  4884    1
  4068  4880  4881    1
  4069  4880  4882    1
  4070  4880  4883    1
  4071  4885  4886    1
  4072  4885  4890    1
  4073  4886  4887    1
  4074  4886  4888    1
  4075  4886  4889    1
  4076  4891  4892    1
  4077  4891  4896    1
  4078  4892  4893    1
  4079  4892  4894    1
  4080  4892  4895    1
  4081  4897  4898    1
  4082  4897  4902    1
  4083  4898  4899    1
  4084  4898  4900    1
  4085  4898  4901    1
  4086  4903  4904    1
  4087  4903  4908    1
  4088  4904  4905    1
  4089  4904  4906    1
  4090  4904  4907    1
  4091  4909  4910    1
  4092  4909  4914    1
  4093  4910  4911    1
  4094  4910  4912    1
  4095  4910  4913    1
  4096  4915  4916    1
  4097  4915  4920    1
  4098  4916  4917    1
  4099  4916  4918    1
  4100  4916  4919    1
  4101  4921  4922    1
  4102  4921  4926    1
  4103  4922  4923    1
  4104  4922  4924    1
  4105  4922  4925    1
  4106  4927  4928    1
  4107  4927  4932    1
  4108  4928  4929    1
  4109  4928  4930    1
  4110  4928  4931    1
  4111  4933  4934    1
  4112  4933  4938    1
  4113  4934  4935    1
  4114  4934  4936    1
  4115  4934  4937    1
  4116  4939  4940    1
  4117  4939  4944    1
  4118  4940  4941    1
  4119  4940  4942    1
  4120  4940  4943    1
  4121  4945  4946    1
  4122  4945  4950    1
  4123  4946  4947    1
  4124  4946  4948    1
  4125  4946  4949    1
  4126  4951  4952    1
  4127  4951  4956    1
  4128  4952  4953    1
  4129  4952  4954    1
  4130  4952  4955    1
  4131  4957  4958    1
  4132  4957  4962    1
  4133  4958  4959    1
  4134  4958  4960    1
  4135  4958  4961    1
  4136  4963  4964    1
  4137  4963  4968    1
  4138  4964  4965    1
  4139  4964  4966    1
  4140  4964  4967    1
  4141  4969  4970    1
  4142  4969  4974    1
  4143  4970  4971    1
  4144  4970  4972    1
  4145  4970  4973    1
  4146  4975  4976    1
  4147  4975  4980    1
  4148  4976  4977    1
  4149  4976  4978    1
  4150  4976  4979    1
  4151  4981  4982    1
  4152  4981  4986    1
  4153  4982  4983    1
  4154  4982  4984    1
  4155  4982  4985    1
  4156  4987  4988    1
  4157  4987  4992    1
  4158  4988  4989    1
  4159  4988  4990    1
  4160  4988  4991    1
  4161  4993  4994    1
  4162  4993  4998    1
  4163  4994  4995    1
  4164  4994  4996    1
  4165  4994  4997    1
  4166  4999  5000    1
  4167  4999  5004    1
  4168  5000  5001    1
  4169  5000  5002    1
  4170  5000  5003    1
  4171  5005  5006    1
  4172  5005  5010    1
  4173  5006  5007    1
  4174  5006  5008    1
  4175  5006  5009    1
  4176  5011  5012    1
  4177  5011  5016    1
  4178  5012  5013    1
  4179  5012  5014    1
  4180  5012  5015    1
  4181  5017  5018    1
  4182  5017  5022    1
  4183  5018  5019    1
  4184  5018  5020    1
  4185  5018  5021    1
  4186  5023  5024    1
  4187  5023  5028    1
  4188  5024  5025    1
  4189  5024  5026    1
  4190  5024  5027    1
  4191  5029  5030    1
  4192  5029  5034    1
  4193  5030  5031    1
  4194  5030  5032    1
  4195  5030  5033    1
  4196  5035  5036    1
  4197  5035  5040    1
  4198  5036  5037    1
  4199  5036  5038    1
  4200  5036  5039    1
  4201  5041  5042    1
  4202  5041  5046    1
  4203  5042  5043    1
  4204  5042  5044    1
  4205  5042  5045    1
  4206  5047  5048    1
  4207  5047  5052    1
  4208  5048  5049    1
  4209  5048  5050    1
  4210  5048  5051    1
  4211  5053  5054    1
  4212  5053  5058    1
  4213  5054  5055    1
  4214  5054  5056    1
  4215  5054  5057    1
  4216  5059  5060    1
  4217  5059  5064    1
  4218  5060  5061    1
  4219  5060  5062    1
  4220  5060  5063    1
  4221  5065  5066    1
  4222  5065  5070    1
  4223  5066  5067    1
  4224  5066  5068    1
  4225  5066  5069    1
  4226  5071  5072    1
  4227  5071  5076    1
  4228  5072  5073    1
  4229  5072  5074    1
  4230  5072  5075    1
  4231  5077  5078    1
  4232  5077  5082    1
  4233  5078  5079    1
  4234  5078  5080    1
  4235  5078  5081    1
  4236  5083  5084    1
  4237  5083  5088    1
  4238  5084  5085    1
  4239  5084  5086    1
  4240  5084  5087    1
  4241  5089  5090    1
  4242  5089  5094    1
  4243  5090  5091    1
  4244  5090  5092    1
  4245  5090  5093    1
  4246  5095  5096    1
  4247  5095  5100    1
  4248  5096  5097    1
  4249  5096  5098    1
  4250  5096  5099    1
  4251  5101  5102    1
  4252  5101  5106    1
  4253  5102  5103    1
  4254  5102  5104    1
  4255  5102  5105    1
  4256  5107  5108    1
  4257  5107  5112    1
  4258  5108  5109    1
  4259  5108  5110    1
  4260  5108  5111    1
  4261  5113  5114    1
  4262  5113  5118    1
  4263  5114  5115    1
  4264  5114  5116    1
  4265  5114  5117    1
  4266  5119  5120    1
  4267  5119  5124    1
  4268  5120  5121    1
  4269  5120  5122    1
  4270  5120  5123    1
  4271  5125  5126    1
  4272  5125  5130    1
  4273  5126  5127    1
  4274  5126  5128    1
  4275  5126  5129    1
  4276  5131  5132    1
  4277  5131  5136    1
  4278  5132  5133    1
  4279  5132  5134    1
  4280  5132  5135    1
  4281  5137  5138    1
  4282  5137  5142    1
  4283  5138  5139    1
  4284  5138  5140    1
  4285  5138  5141    1
  4286  5143  5144    1
  4287  5143  5148    1
  4288  5144  5145    1
  4289  5144  5146    1
  4290  5144  5147    1
  4291  5149  5150    1
  4292  5149  5154    1
  4293  5150  5151    1
  4294  5150  5152    1
  4295  5150  5153    1
  4296  5155  5156    1
  4297  5155  5160    1
  4298  5156  5157    1
  4299  5156  5158    1
  4300  5156  5159    1
  4301  5161  5162    1
  4302  5161  5166    1
  4303  5162  5163    1
  4304  5162  5164    1
  4305  5162  5165    1
  4306  5167  5168    1
  4307  5167  5172    1
  4308  5168  5169    1
  4309  5168  5170    1
  4310  5168  5171    1
  4311  5173  5174    1
  4312  5173  5178    1
  4313  5174  5175    1
  4314  5174  5176    1
  4315  5174  5177    1
  4316  5179  5180    1
  4317  5179  5184    1
  4318  5180  5181    1
  4319  5180  5182    1
  4320  5180  5183    1
