@<TRIPOS>MOLECULE
*****
 870 725 0 0 0
SMALL
GASTEIGER

@<TRIPOS>ATOM
      1 O          -1.0945    6.0904    8.7607 O.3     1  UNL1       -0.3982
      2 C          -1.2786    6.7254    7.5088 C.3     1  UNL1        0.0330
      3 H          -2.1853    7.3348    7.5381 H       1  UNL1        0.0521
      4 H          -1.3602    5.9693    6.7242 H       1  UNL1        0.0521
      5 H          -0.4177    7.3666    7.3056 H       1  UNL1        0.0521
      6 H          -1.8734    5.5287    8.9135 H       1  UNL1        0.2090
      7 O          -0.4996   14.9656    1.5813 O.3     2  UNL2       -0.3982
      8 C          -1.2972   15.6428    2.5350 C.3     2  UNL2        0.0330
      9 H          -1.6031   14.9441    3.3176 H       2  UNL2        0.0521
     10 H          -2.1774   16.0632    2.0426 H       2  UNL2        0.0521
     11 H          -0.7107   16.4503    2.9795 H       2  UNL2        0.0521
     12 H          -1.0463   14.2554    1.2042 H       2  UNL2        0.2090
     13 O          -0.1528   16.8518    7.3247 O.3     3  UNL3       -0.3982
     14 C          -1.5306   16.8518    7.6509 C.3     3  UNL3        0.0330
     15 H          -1.6737   17.3114    8.6320 H       3  UNL3        0.0521
     16 H          -1.9037   15.8248    7.6598 H       3  UNL3        0.0521
     17 H          -2.0738   17.4281    6.8983 H       3  UNL3        0.0521
     18 H           0.3029   16.3334    8.0096 H       3  UNL3        0.2090
     19 O          -1.4165    1.1955   -0.5757 O.3     4  UNL4       -0.3982
     20 C          -0.0422    1.3461   -0.8808 C.3     4  UNL4        0.0330
     21 H           0.2964    0.4919   -1.4724 H       4  UNL4        0.0521
     22 H           0.5326    1.4117    0.0462 H       4  UNL4        0.0521
     23 H           0.0952    2.2636   -1.4578 H       4  UNL4        0.0521
     24 H          -1.5072    0.3736   -0.0639 H       4  UNL4        0.2090
     25 O           1.2144    1.2075    1.9535 O.3     5  UNL5       -0.3982
     26 C          -0.1574    0.9565    2.1979 C.3     5  UNL5        0.0330
     27 H          -0.2576    0.2484    3.0242 H       5  UNL5        0.0521
     28 H          -0.6203    0.5483    1.2961 H       5  UNL5        0.0521
     29 H          -0.6485    1.8954    2.4639 H       5  UNL5        0.0521
     30 H           1.6234    0.3568    1.7200 H       5  UNL5        0.2090
     31 O           0.4300    1.4564    4.7641 O.3     6  UNL6       -0.3982
     32 C          -0.8980    1.1215    5.1229 C.3     6  UNL6        0.0330
     33 H          -0.9006    0.1777    5.6739 H       6  UNL6        0.0521
     34 H          -1.5082    1.0308    4.2209 H       6  UNL6        0.0521
     35 H          -1.3049    1.9124    5.7573 H       6  UNL6        0.0521
     36 H           0.7641    0.7368    4.2018 H       6  UNL6        0.2090
     37 O           0.7984    1.3331    8.4195 O.3     7  UNL7       -0.3982
     38 C          -0.4671    1.3331    7.7847 C.3     7  UNL7        0.0330
     39 H          -1.1720    0.7426    8.3752 H       7  UNL7        0.0521
     40 H          -0.3724    0.9107    6.7814 H       7  UNL7        0.0521
     41 H          -0.8281    2.3617    7.7119 H       7  UNL7        0.0521
     42 H           1.0928    0.4077    8.4696 H       7  UNL7        0.2090
     43 O           0.5333    1.4413   11.4617 O.3     8  UNL8       -0.3982
     44 C           1.9106    1.1245   11.5456 C.3     8  UNL8        0.0330
     45 H           2.2875    0.8676   10.5524 H       8  UNL8        0.0521
     46 H           2.0509    0.2835   12.2290 H       8  UNL8        0.0521
     47 H           2.4527    1.9938   11.9250 H       8  UNL8        0.0521
     48 H           0.0786    0.6516   11.1223 H       8  UNL8        0.2090
     49 O           1.1904    4.4260   -0.6904 O.3     9  UNL9       -0.3982
     50 C          -0.0812    3.9313   -0.3126 C.3     9  UNL9        0.0330
     51 H           0.0432    3.0916    0.3756 H       9  UNL9        0.0521
     52 H          -0.6269    3.6090   -1.2027 H       9  UNL9        0.0521
     53 H          -0.6388    4.7281    0.1853 H       9  UNL9        0.0521
     54 H           1.6615    3.6974   -1.1293 H       9  UNL9        0.2090
     55 O          -0.9110    3.7015    2.3945 O.3    10  UNL10      -0.3982
     56 C           0.5011    3.6613    2.4889 C.3    10  UNL10       0.0330
     57 H           0.8525    4.5141    3.0750 H      10  UNL10       0.0521
     58 H           0.9352    3.6908    1.4866 H      10  UNL10       0.0521
     59 H           0.7977    2.7341    2.9849 H      10  UNL10       0.0521
     60 H          -1.1440    4.5347    1.9505 H      10  UNL10       0.2090
     61 O          -0.7734    3.8826    4.5330 O.3    11  UNL11      -0.3982
     62 C           0.4500    3.6706    5.2134 C.3    11  UNL11       0.0330
     63 H           0.6856    4.5466    5.8228 H      11  UNL11       0.0521
     64 H           1.2465    3.4943    4.4864 H      11  UNL11       0.0521
     65 H           0.3499    2.7957    5.8601 H      11  UNL11       0.0521
     66 H          -0.6539    4.6645    3.9675 H      11  UNL11       0.2090
     67 O           2.7287    3.6216    7.7892 O.3    12  UNL12      -0.3982
     68 C           1.3521    3.6979    8.1113 C.3    12  UNL12       0.0330
     69 H           0.7570    3.4014    7.2440 H      12  UNL12       0.0521
     70 H           1.1021    4.7200    8.4060 H      12  UNL12       0.0521
     71 H           1.1436    3.0201    8.9425 H      12  UNL12       0.0521
     72 H           2.8833    4.2332    7.0492 H      12  UNL12       0.2090
     73 O           1.0150    3.8784   10.6129 O.3    13  UNL13      -0.3982
     74 C          -0.3799    3.8353   10.3746 C.3    13  UNL13       0.0330
     75 H          -0.8749    4.6134   10.9610 H      13  UNL13       0.0521
     76 H          -0.7677    2.8524   10.6527 H      13  UNL13       0.0521
     77 H          -0.5644    4.0101    9.3120 H      13  UNL13       0.0521
     78 H           1.1475    3.7202   11.5632 H      13  UNL13       0.2090
     79 O           0.1775    6.5989   -0.6398 O.3    14  UNL14      -0.3982
     80 C          -1.1375    7.0070   -0.3102 C.3    14  UNL14       0.0330
     81 H          -1.1241    7.5528    0.6365 H      14  UNL14       0.0521
     82 H          -1.7826    6.1289   -0.2277 H      14  UNL14       0.0521
     83 H          -1.5150    7.6609   -1.0999 H      14  UNL14       0.0521
     84 H           0.4856    6.0204    0.0786 H      14  UNL14       0.2090
     85 O           0.6941    6.9754    2.4930 O.3    15  UNL15      -0.3982
     86 C          -0.6639    6.6459    2.2654 C.3    15  UNL15       0.0330
     87 H          -1.0439    6.0613    3.1069 H      15  UNL15       0.0521
     88 H          -0.7500    6.0710    1.3401 H      15  UNL15       0.0521
     89 H          -1.2427    7.5679    2.1740 H      15  UNL15       0.0521
     90 H           1.1823    6.1380    2.5697 H      15  UNL15       0.2090
     91 O           1.6219    7.4276    5.4272 O.3    16  UNL16      -0.3982
     92 C           0.5307    6.6426    4.9827 C.3    16  UNL16       0.0330
     93 H           0.8979    5.8345    4.3452 H      16  UNL16       0.0521
     94 H          -0.1686    7.2711    4.4260 H      16  UNL16       0.0521
     95 H           0.0225    6.2166    5.8509 H      16  UNL16       0.0521
     96 H           2.0529    7.7921    4.6355 H      16  UNL16       0.2090
     97 O           1.8199    7.6992    7.7628 O.3    17  UNL17      -0.3982
     98 C           1.9613    6.2949    7.6514 C.3    17  UNL17       0.0330
     99 H           1.0218    5.8598    7.3017 H      17  UNL17       0.0521
    100 H           2.2290    5.8765    8.6246 H      17  UNL17       0.0521
    101 H           2.7530    6.0735    6.9318 H      17  UNL17       0.0521
    102 H           1.1111    7.8647    8.4076 H      17  UNL17       0.2090
    103 O           2.5568    5.5129   11.3208 O.3    18  UNL18      -0.3982
    104 C           1.8764    6.7545   11.3208 C.3    18  UNL18       0.0330
    105 H           2.5402    7.5349   11.7012 H      18  UNL18       0.0521
    106 H           0.9846    6.6822   11.9479 H      18  UNL18       0.0521
    107 H           1.5808    6.9977   10.2975 H      18  UNL18       0.0521
    108 H           2.8065    5.3240   12.2414 H      18  UNL18       0.2090
    109 O          -0.4194    9.3440    0.6129 O.3    19  UNL19      -0.3982
    110 C           0.7590    8.5655    0.5147 C.3    19  UNL19       0.0330
    111 H           1.5557    9.0334    1.0984 H      19  UNL19       0.0521
    112 H           1.0586    8.4871   -0.5333 H      19  UNL19       0.0521
    113 H           0.5591    7.5668    0.9099 H      19  UNL19       0.0521
    114 H          -0.2113   10.2238    0.2550 H      19  UNL19       0.2090
    115 O           0.4880    9.6660    2.6660 O.3    20  UNL20      -0.3982
    116 C           0.1288    9.4668    4.0209 C.3    20  UNL20       0.0330
    117 H          -0.8304    8.9455    4.0716 H      20  UNL20       0.0521
    118 H           0.0575   10.4333    4.5257 H      20  UNL20       0.0521
    119 H           0.8967    8.8603    4.5066 H      20  UNL20       0.0521
    120 H          -0.2115   10.2069    2.2614 H      20  UNL20       0.2090
    121 O           0.7275    9.1247    6.5123 O.3    21  UNL21      -0.3982
    122 C          -0.6011    9.6027    6.6158 C.3    21  UNL21       0.0330
    123 H          -0.8173   10.2660    5.7747 H      21  UNL21       0.0521
    124 H          -0.7231   10.1410    7.5589 H      21  UNL21       0.0521
    125 H          -1.2873    8.7528    6.5926 H      21  UNL21       0.0521
    126 H           1.3130    9.9008    6.5357 H      21  UNL21       0.2090
    127 O          -0.4591   10.0790   11.1969 O.3    22  UNL22      -0.3982
    128 C           0.6414    9.2140   11.4095 C.3    22  UNL22       0.0330
    129 H           0.3500    8.4137   12.0943 H      22  UNL22       0.0521
    130 H           1.4760    9.7811   11.8289 H      22  UNL22       0.0521
    131 H           0.9425    8.7804   10.4530 H      22  UNL22       0.0521
    132 H          -0.7036   10.4483   12.0625 H      22  UNL22       0.2090
    133 O           0.7746   12.2578   -0.4409 O.3    23  UNL23      -0.3982
    134 C          -0.5554   12.5908   -0.7940 C.3    23  UNL23       0.0330
    135 H          -1.2234   12.3595    0.0394 H      23  UNL23       0.0521
    136 H          -0.8509   12.0236   -1.6800 H      23  UNL23       0.0521
    137 H          -0.6075   13.6596   -1.0142 H      23  UNL23       0.0521
    138 H           0.7896   11.3042   -0.2513 H      23  UNL23       0.2090
    139 O           0.7740   12.1284    1.9558 O.3    24  UNL24      -0.3982
    140 C          -0.4069   12.5092    2.6375 C.3    24  UNL24       0.0330
    141 H          -0.6798   11.7332    3.3570 H      24  UNL24       0.0521
    142 H          -1.2150   12.6526    1.9161 H      24  UNL24       0.0521
    143 H          -0.2244   13.4468    3.1678 H      24  UNL24       0.0521
    144 H           0.5815   11.2940    1.4950 H      24  UNL24       0.2090
    145 O           2.8670   12.2892    4.9492 O.3    25  UNL25      -0.3982
    146 C           1.4608   12.2701    5.1123 C.3    25  UNL25       0.0330
    147 H           0.9827   12.6486    4.2054 H      25  UNL25       0.0521
    148 H           1.1840   12.8899    5.9687 H      25  UNL25       0.0521
    149 H           1.1376   11.2417    5.2900 H      25  UNL25       0.0521
    150 H           3.1240   13.2139    4.7933 H      25  UNL25       0.2090
    151 O           1.3776   10.8049    8.1119 O.3    26  UNL26      -0.3982
    152 C           2.4851   11.2707    7.3628 C.3    26  UNL26       0.0330
    153 H           2.4700   10.8176    6.3685 H      26  UNL26       0.0521
    154 H           3.4116   11.0096    7.8800 H      26  UNL26       0.0521
    155 H           2.4176   12.3569    7.2670 H      26  UNL26       0.0521
    156 H           1.4649    9.8389    8.1803 H      26  UNL26       0.2090
    157 O           1.2385   13.5180   10.9286 O.3    27  UNL27      -0.3982
    158 C           1.9259   12.2958   11.1238 C.3    27  UNL27       0.0330
    159 H           1.2086   11.5082   11.3677 H      27  UNL27       0.0521
    160 H           2.6489   12.4090   11.9352 H      27  UNL27       0.0521
    161 H           2.4527   12.0335   10.2033 H      27  UNL27       0.0521
    162 H           0.7811   13.7247   11.7614 H      27  UNL27       0.2090
    163 O           1.0657   14.6987   -1.6008 O.3    28  UNL28      -0.3982
    164 C           0.7349   15.0910   -0.2812 C.3    28  UNL28       0.0330
    165 H           0.4008   14.2189    0.2863 H      28  UNL28       0.0521
    166 H          -0.0561   15.8442   -0.3116 H      28  UNL28       0.0521
    167 H           1.6213   15.5157    0.1959 H      28  UNL28       0.0521
    168 H           0.2603   14.3260   -1.9984 H      28  UNL28       0.2090
    169 O           2.5878   14.7273    1.5433 O.3    29  UNL29      -0.3982
    170 C           1.9232   15.5307    2.5010 C.3    29  UNL29       0.0330
    171 H           1.3999   14.8902    3.2153 H      29  UNL29       0.0521
    172 H           1.2117   16.1882    1.9955 H      29  UNL29       0.0521
    173 H           2.6621   16.1361    3.0312 H      29  UNL29       0.0521
    174 H           1.9071   14.2019    1.0893 H      29  UNL29       0.2090
    175 O           2.6934   15.0756    5.0110 O.3    30  UNL30      -0.3982
    176 C           1.4401   15.6377    5.3543 C.3    30  UNL30       0.0330
    177 H           0.7505   14.8419    5.6465 H      30  UNL30       0.0521
    178 H           1.0390   16.1860    4.4985 H      30  UNL30       0.0521
    179 H           1.5766   16.3246    6.1928 H      30  UNL30       0.0521
    180 H           2.5406   14.4711    4.2648 H      30  UNL30       0.2090
    181 O           1.6702   14.0164    8.3328 O.3    31  UNL31      -0.3982
    182 C           0.3459   13.6553    7.9863 C.3    31  UNL31       0.0330
    183 H           0.3411   12.6483    7.5616 H      31  UNL31       0.0521
    184 H          -0.0496   14.3702    7.2606 H      31  UNL31       0.0521
    185 H          -0.2739   13.6719    8.8858 H      31  UNL31       0.0521
    186 H           2.1961   13.9928    7.5152 H      31  UNL31       0.2090
    187 O           1.5883   16.4374   12.0300 O.3    32  UNL32      -0.3982
    188 C           0.3131   16.4120   11.4155 C.3    32  UNL32       0.0330
    189 H          -0.2671   15.5753   11.8126 H      32  UNL32       0.0521
    190 H           0.4308   16.3071   10.3342 H      32  UNL32       0.0521
    191 H          -0.2054   17.3484   11.6342 H      32  UNL32       0.0521
    192 H           2.0242   15.5943   11.8186 H      32  UNL32       0.2090
    193 O           3.5877    0.6203   -0.6900 O.3    33  UNL33      -0.3982
    194 C           2.1919    0.8014   -0.8425 C.3    33  UNL33       0.0330
    195 H           1.9821    1.8500   -1.0681 H      33  UNL33       0.0521
    196 H           1.6827    0.5068    0.0783 H      33  UNL33       0.0521
    197 H           1.8404    0.1763   -1.6666 H      33  UNL33       0.0521
    198 H           3.8705    1.1870    0.0478 H      33  UNL33       0.2090
    199 O           4.8169    1.1195    2.2839 O.3    34  UNL34      -0.3982
    200 C           3.4107    0.9727    2.3573 C.3    34  UNL34       0.0330
    201 H           3.1529    0.3484    3.2165 H      34  UNL34       0.0521
    202 H           3.0429    0.5135    1.4365 H      34  UNL34       0.0521
    203 H           2.9562    1.9589    2.4768 H      34  UNL34       0.0521
    204 H           5.1921    0.2287    2.1781 H      34  UNL34       0.2090
    205 O           3.8214    0.8340    5.1041 O.3    35  UNL35      -0.3982
    206 C           2.4819    1.2925    5.1173 C.3    35  UNL35       0.0330
    207 H           1.8271    0.4969    5.4814 H      35  UNL35       0.0521
    208 H           2.1871    1.5881    4.1075 H      35  UNL35       0.0521
    209 H           2.4083    2.1554    5.7833 H      35  UNL35       0.0521
    210 H           3.8555    0.0687    4.5052 H      35  UNL35       0.2090
    211 O           4.2210    1.1982    7.7847 O.3    36  UNL36      -0.3982
    212 C           2.8889    1.1401    8.2608 C.3    36  UNL36       0.0330
    213 H           2.6351    0.1069    8.5107 H      36  UNL36       0.0521
    214 H           2.2098    1.5178    7.4927 H      36  UNL36       0.0521
    215 H           2.8042    1.7606    9.1560 H      36  UNL36       0.0521
    216 H           4.2653    0.6386    6.9907 H      36  UNL36       0.2090
    217 O           4.8566   -0.1705   10.7578 O.3    37  UNL37      -0.3982
    218 C           3.9372   -1.2366   10.9080 C.3    37  UNL37       0.0330
    219 H           2.9629   -0.8398   11.2039 H      37  UNL37       0.0521
    220 H           4.3050   -1.9319   11.6665 H      37  UNL37       0.0521
    221 H           3.8406   -1.7596    9.9537 H      37  UNL37       0.0521
    222 H           4.9215    0.2745   11.6199 H      37  UNL37       0.2090
    223 O           2.4433    2.9221    1.1245 O.3    38  UNL38      -0.3982
    224 C           3.3379    3.9091    0.6448 C.3    38  UNL38       0.0330
    225 H           3.0223    4.2361   -0.3491 H      38  UNL38       0.0521
    226 H           4.3483    3.4955    0.6003 H      38  UNL38       0.0521
    227 H           3.3254    4.7619    1.3276 H      38  UNL38       0.0521
    228 H           2.4760    2.1785    0.4988 H      38  UNL38       0.2090
    229 O           4.2369    3.1154    3.9667 O.3    39  UNL39      -0.3982
    230 C           3.4528    4.1411    3.3856 C.3    39  UNL39       0.0330
    231 H           3.1004    4.8188    4.1672 H      39  UNL39       0.0521
    232 H           2.6021    3.6981    2.8619 H      39  UNL39       0.0521
    233 H           4.0667    4.6974    2.6735 H      39  UNL39       0.0521
    234 H           3.6657    2.6394    4.5934 H      39  UNL39       0.2090
    235 O           4.2394    4.5641    5.7919 O.3    40  UNL40      -0.3982
    236 C           5.1051    4.2096    6.8547 C.3    40  UNL40       0.0330
    237 H           5.9267    4.9280    6.9116 H      40  UNL40       0.0521
    238 H           5.4974    3.2038    6.6862 H      40  UNL40       0.0521
    239 H           4.5432    4.2270    7.7915 H      40  UNL40       0.0521
    240 H           4.7657    4.5400    4.9746 H      40  UNL40       0.2090
    241 O           4.0387    3.1318   10.3006 O.3    41  UNL41      -0.3982
    242 C           5.2543    2.4113   10.3882 C.3    41  UNL41       0.0330
    243 H           5.3948    2.0548   11.4117 H      41  UNL41       0.0521
    244 H           6.0850    3.0600   10.0997 H      41  UNL41       0.0521
    245 H           5.2101    1.5561    9.7097 H      41  UNL41       0.0521
    246 H           4.1077    3.8839   10.9131 H      41  UNL41       0.2090
    247 O           3.9186    6.3572   -0.6417 O.3    42  UNL42      -0.3982
    248 C           2.5218    6.4972   -0.4570 C.3    42  UNL42       0.0330
    249 H           2.1914    5.8345    0.3467 H      42  UNL42       0.0521
    250 H           2.0038    6.2473   -1.3861 H      42  UNL42       0.0521
    251 H           2.3012    7.5325   -0.1866 H      42  UNL42       0.0521
    252 H           4.0835    5.4291   -0.8806 H      42  UNL42       0.2090
    253 O           4.4541    6.9096    1.7482 O.3    43  UNL43      -0.3982
    254 C           3.1453    6.7890    2.2744 C.3    43  UNL43       0.0330
    255 H           3.2000    6.5037    3.3280 H      43  UNL43       0.0521
    256 H           2.5928    6.0340    1.7098 H      43  UNL43       0.0521
    257 H           2.6365    7.7517    2.1858 H      43  UNL43       0.0521
    258 H           4.8804    6.0406    1.8405 H      43  UNL43       0.2090
    259 O           3.5232    6.8365    5.0223 O.3    44  UNL44      -0.3982
    260 C           4.9124    6.7366    4.7681 C.3    44  UNL44       0.0330
    261 H           5.0838    6.0401    3.9436 H      44  UNL44       0.0521
    262 H           5.4240    6.3859    5.6678 H      44  UNL44       0.0521
    263 H           5.2954    7.7226    4.4948 H      44  UNL44       0.0521
    264 H           3.2119    5.9470    5.2621 H      44  UNL44       0.2090
    265 O           4.7213    7.8418    8.6426 O.3    45  UNL45      -0.3982
    266 C           4.6778    6.5346    8.1006 C.3    45  UNL45       0.0330
    267 H           5.6691    6.0791    8.1652 H      45  UNL45       0.0521
    268 H           4.3542    6.5821    7.0580 H      45  UNL45       0.0521
    269 H           3.9661    5.9358    8.6738 H      45  UNL45       0.0521
    270 H           5.3606    8.3491    8.1139 H      45  UNL45       0.2090
    271 O           5.8542    5.4022    9.9887 O.3    46  UNL46      -0.3982
    272 C           5.0126    6.1080   10.8821 C.3    46  UNL46       0.0330
    273 H           4.7811    5.4755   11.7427 H      46  UNL46       0.0521
    274 H           4.0917    6.3933   10.3678 H      46  UNL46       0.0521
    275 H           5.5308    7.0075   11.2226 H      46  UNL46       0.0521
    276 H           5.3678    4.6099    9.7037 H      46  UNL46       0.2090
    277 O           3.6470    8.7389    1.1497 O.3    47  UNL47      -0.3982
    278 C           3.4068   10.1019    0.8512 C.3    47  UNL47       0.0330
    279 H           2.4027   10.2131    0.4345 H      47  UNL47       0.0521
    280 H           4.1517   10.4555    0.1342 H      47  UNL47       0.0521
    281 H           3.4838   10.6860    1.7713 H      47  UNL47       0.0521
    282 H           3.5720    8.2461    0.3148 H      47  UNL47       0.2090
    283 O           3.9543    9.0274    3.6618 O.3    48  UNL48      -0.3982
    284 C           2.8990    9.9693    3.7217 C.3    48  UNL48       0.0330
    285 H           2.2606    9.7485    4.5808 H      48  UNL48       0.0521
    286 H           2.3154    9.9231    2.7991 H      48  UNL48       0.0521
    287 H           3.3222   10.9704    3.8328 H      48  UNL48       0.0521
    288 H           3.5483    8.1493    3.5633 H      48  UNL48       0.2090
    289 O           5.5565   10.2442    5.4515 O.3    49  UNL49      -0.3982
    290 C           4.5584    9.4821    6.1052 C.3    49  UNL49       0.0330
    291 H           4.7869    8.4181    6.0050 H      49  UNL49       0.0521
    292 H           3.5837    9.6996    5.6617 H      49  UNL49       0.0521
    293 H           4.5426    9.7509    7.1640 H      49  UNL49       0.0521
    294 H           5.5467    9.9840    4.5146 H      49  UNL49       0.2090
    295 O           4.2218   10.1409    9.6409 O.3    50  UNL50      -0.3982
    296 C           3.0568    9.3539    9.8078 C.3    50  UNL50       0.0330
    297 H           3.1838    8.6911   10.6673 H      50  UNL50       0.0521
    298 H           2.8805    8.7661    8.9037 H      50  UNL50       0.0521
    299 H           2.2041   10.0142    9.9825 H      50  UNL50       0.0521
    300 H           4.9611    9.5280    9.4876 H      50  UNL50       0.2090
    301 O           4.0121   11.8959   -1.0219 O.3    51  UNL51      -0.3982
    302 C           2.7384   12.3985   -0.6621 C.3    51  UNL51       0.0330
    303 H           2.2779   11.7340    0.0732 H      51  UNL51       0.0521
    304 H           2.1081   12.4672   -1.5520 H      51  UNL51       0.0521
    305 H           2.8590   13.3929   -0.2261 H      51  UNL51       0.0521
    306 H           3.8730   11.0133   -1.4056 H      51  UNL51       0.2090
    307 O           4.3420   12.6099    2.1076 O.3    52  UNL52      -0.3982
    308 C           2.9381   12.6654    2.2823 C.3    52  UNL52       0.0330
    309 H           2.5841   11.7190    2.6987 H      52  UNL52       0.0521
    310 H           2.4575   12.8545    1.3194 H      52  UNL52       0.0521
    311 H           2.6978   13.4773    2.9727 H      52  UNL52       0.0521
    312 H           4.5245   11.8808    1.4906 H      52  UNL52       0.2090
    313 O           6.1515   12.3282    5.0443 O.3    53  UNL53      -0.3982
    314 C           4.7452   12.3666    4.8847 C.3    53  UNL53       0.0330
    315 H           4.4976   12.8705    3.9471 H      53  UNL53       0.0521
    316 H           4.2965   12.8994    5.7266 H      53  UNL53       0.0521
    317 H           4.3626   11.3437    4.8581 H      53  UNL53       0.0521
    318 H           6.4620   13.2495    5.0645 H      53  UNL53       0.2090
    319 O           4.0725   13.1044    7.6256 O.3    54  UNL54      -0.3982
    320 C           5.1886   12.2815    7.9117 C.3    54  UNL54       0.0330
    321 H           5.8787   12.8172    8.5682 H      54  UNL54       0.0521
    322 H           5.6912   12.0110    6.9799 H      54  UNL54       0.0521
    323 H           4.8422   11.3746    8.4129 H      54  UNL54       0.0521
    324 H           4.4109   13.9005    7.1816 H      54  UNL54       0.2090
    325 O           4.3687   11.3328   11.3258 O.3    55  UNL55      -0.3982
    326 C           5.1997   12.4790   11.3208 C.3    55  UNL55       0.0330
    327 H           6.0501   12.3166   11.9877 H      55  UNL55       0.0521
    328 H           4.6252   13.3481   11.6507 H      55  UNL55       0.0521
    329 H           5.5635   12.6498   10.3049 H      55  UNL55       0.0521
    330 H           4.0613   11.2067   12.2396 H      55  UNL55       0.2090
    331 O           4.9905   15.0218   -1.4915 O.3    56  UNL56      -0.3982
    332 C           4.5838   15.7615   -0.3549 C.3    56  UNL56       0.0330
    333 H           4.2041   15.0783    0.4089 H      56  UNL56       0.0521
    334 H           3.8058   16.4732   -0.6416 H      56  UNL56       0.0521
    335 H           5.4443   16.3056    0.0414 H      56  UNL56       0.0521
    336 H           4.2066   14.5500   -1.8208 H      56  UNL56       0.2090
    337 O           6.0832   14.9621    1.6861 O.3    57  UNL57      -0.3982
    338 C           5.0545   15.5641    2.4502 C.3    57  UNL57       0.0330
    339 H           4.4432   14.7872    2.9161 H      57  UNL57       0.0521
    340 H           4.4361   16.1894    1.8018 H      57  UNL57       0.0521
    341 H           5.5062   16.1844    3.2279 H      57  UNL57       0.0521
    342 H           5.6521   14.4185    1.0047 H      57  UNL57       0.2090
    343 O           5.6788   15.0262    4.8846 O.3    58  UNL58      -0.3982
    344 C           4.9612   16.0805    5.4993 C.3    58  UNL58       0.0330
    345 H           4.2890   15.6714    6.2576 H      58  UNL58       0.0521
    346 H           4.3879   16.6218    4.7427 H      58  UNL58       0.0521
    347 H           5.6698   16.7633    5.9739 H      58  UNL58       0.0521
    348 H           5.0241   14.4373    4.4723 H      58  UNL58       0.2090
    349 O           4.6852   16.5098    8.1371 O.3    59  UNL59      -0.3982
    350 C           3.3029   16.5300    7.8315 C.3    59  UNL59       0.0330
    351 H           3.1329   17.1525    6.9495 H      59  UNL59       0.0521
    352 H           2.7463   16.9271    8.6838 H      59  UNL59       0.0521
    353 H           2.9698   15.5103    7.6247 H      59  UNL59       0.0521
    354 H           4.9518   17.4277    8.3158 H      59  UNL59       0.2090
    355 O           4.7658   14.8059    9.7622 O.3    60  UNL60      -0.3982
    356 C           4.7539   15.7291   10.8356 C.3    60  UNL60       0.0330
    357 H           5.0646   15.2252   11.7542 H      60  UNL60       0.0521
    358 H           3.7476   16.1382   10.9543 H      60  UNL60       0.0521
    359 H           5.4510   16.5406   10.6140 H      60  UNL60       0.0521
    360 H           4.1384   14.0980    9.9873 H      60  UNL60       0.2090
    361 O           7.0513    0.9165   -0.5575 O.3    61  UNL61      -0.3982
    362 C           5.6601    1.0861   -0.3563 C.3    61  UNL61       0.0330
    363 H           5.2397    0.1746    0.0759 H      61  UNL61       0.0521
    364 H           5.1770    1.3055   -1.3116 H      61  UNL61       0.0521
    365 H           5.4996    1.9202    0.3307 H      61  UNL61       0.0521
    366 H           7.1623    0.1701   -1.1708 H      61  UNL61       0.2090
    367 O           8.3834    1.0414    2.2419 O.3    62  UNL62      -0.3982
    368 C           7.0128    0.8604    1.9367 C.3    62  UNL62       0.0330
    369 H           6.6006    1.7919    1.5410 H      62  UNL62       0.0521
    370 H           6.4734    0.5655    2.8401 H      62  UNL62       0.0521
    371 H           6.9171    0.0736    1.1847 H      62  UNL62       0.0521
    372 H           8.4366    1.7448    2.9111 H      62  UNL62       0.2090
    373 O           7.2793    1.0292    4.7451 O.3    63  UNL63      -0.3982
    374 C           5.8785    0.9037    4.9071 C.3    63  UNL63       0.0330
    375 H           5.6658    0.1976    5.7136 H      63  UNL63       0.0521
    376 H           5.4329    0.5519    3.9734 H      63  UNL63       0.0521
    377 H           5.4613    1.8808    5.1618 H      63  UNL63       0.0521
    378 H           7.6210    0.1472    4.5198 H      63  UNL63       0.2090
    379 O           8.0589    1.3534    7.6735 O.3    64  UNL64      -0.3982
    380 C           6.6534    1.4016    7.8367 C.3    64  UNL64       0.0330
    381 H           6.3289    0.5642    8.4594 H      64  UNL64       0.0521
    382 H           6.1701    1.3505    6.8580 H      64  UNL64       0.0521
    383 H           6.3844    2.3413    8.3248 H      64  UNL64       0.0521
    384 H           8.2672    0.5091    7.2383 H      64  UNL64       0.2090
    385 O           8.9470    1.6091   11.0122 O.3    65  UNL65      -0.3982
    386 C           7.7021    1.0755   11.4246 C.3    65  UNL65       0.0330
    387 H           7.1776    1.8079   12.0433 H      65  UNL65       0.0521
    388 H           7.8686    0.1562   11.9914 H      65  UNL65       0.0521
    389 H           7.1010    0.8518   10.5402 H      65  UNL65       0.0521
    390 H           9.4579    1.7976   11.8178 H      65  UNL65       0.2090
    391 O           6.4339    4.2985   -0.9372 O.3    66  UNL66      -0.3982
    392 C           7.6660    3.8525   -0.4009 C.3    66  UNL66       0.0330
    393 H           8.1784    4.6885    0.0815 H      66  UNL66       0.0521
    394 H           8.2867    3.4442   -1.2022 H      66  UNL66       0.0521
    395 H           7.4700    3.0725    0.3386 H      66  UNL66       0.0521
    396 H           6.6398    4.9896   -1.5896 H      66  UNL66       0.2090
    397 O           7.5439    4.1315    2.4452 O.3    67  UNL67      -0.3982
    398 C           6.1376    3.9673    2.4452 C.3    67  UNL67       0.0330
    399 H           5.8930    2.9124    2.5921 H      67  UNL67       0.0521
    400 H           5.7290    4.3181    1.4944 H      67  UNL67       0.0521
    401 H           5.7113    4.5551    3.2615 H      67  UNL67       0.0521
    402 H           7.8937    3.5988    1.7108 H      67  UNL67       0.2090
    403 O           8.6285    4.2017    4.9291 O.3    68  UNL68      -0.3982
    404 C           7.2813    3.7903    5.0722 C.3    68  UNL68       0.0330
    405 H           6.9925    3.1799    4.2130 H      68  UNL68       0.0521
    406 H           6.6363    4.6696    5.1413 H      68  UNL68       0.0521
    407 H           7.1857    3.1984    5.9855 H      68  UNL68       0.0521
    408 H           8.6822    4.7243    4.1109 H      68  UNL68       0.2090
    409 O           8.5693    3.7351    7.1060 O.3    69  UNL69      -0.3982
    410 C           7.7534    3.7417    8.2631 C.3    69  UNL69       0.0330
    411 H           7.9945    4.6145    8.8750 H      69  UNL69       0.0521
    412 H           7.9218    2.8254    8.8339 H      69  UNL69       0.0521
    413 H           6.7054    3.7913    7.9585 H      69  UNL69       0.0521
    414 H           9.4926    3.6907    7.4077 H      69  UNL69       0.2090
    415 O          10.0626    4.0000   11.4670 O.3    70  UNL70      -0.3982
    416 C           8.6563    4.0188   11.6301 C.3    70  UNL70       0.0330
    417 H           8.3503    3.1791   12.2589 H      70  UNL70       0.0521
    418 H           8.1743    3.9499   10.6519 H      70  UNL70       0.0521
    419 H           8.3669    4.9560   12.1112 H      70  UNL70       0.0521
    420 H          10.2892    3.1573   11.0380 H      70  UNL70       0.2090
    421 O           7.5500    6.9628   -0.3993 O.3    71  UNL71      -0.3982
    422 C           6.1723    6.9250   -0.0753 C.3    71  UNL71       0.0330
    423 H           5.9038    5.9209    0.2623 H      71  UNL71       0.0521
    424 H           5.5827    7.1949   -0.9549 H      71  UNL71       0.0521
    425 H           5.9759    7.6411    0.7260 H      71  UNL71       0.0521
    426 H           7.6936    6.3176   -1.1125 H      71  UNL71       0.2090
    427 O           7.1426    6.3447    2.2216 O.3    72  UNL72      -0.3982
    428 C           8.5523    6.3295    2.0913 C.3    72  UNL72       0.0330
    429 H           9.0110    6.3559    3.0829 H      72  UNL72       0.0521
    430 H           8.8743    7.1942    1.5060 H      72  UNL72       0.0521
    431 H           8.8518    5.4128    1.5780 H      72  UNL72       0.0521
    432 H           6.9069    7.1691    2.6802 H      72  UNL72       0.2090
    433 O           8.6751    7.0939    5.6712 O.3    73  UNL73      -0.3982
    434 C           7.7535    7.0656    4.5968 C.3    73  UNL73       0.0330
    435 H           7.5905    6.0318    4.2823 H      73  UNL73       0.0521
    436 H           8.1458    7.6536    3.7636 H      73  UNL73       0.0521
    437 H           6.8063    7.4965    4.9298 H      73  UNL73       0.0521
    438 H           9.5051    6.7056    5.3459 H      73  UNL73       0.2090
    439 O           8.9857    6.4546    7.8907 O.3    74  UNL74      -0.3982
    440 C           7.6227    6.7937    7.7127 C.3    74  UNL74       0.0330
    441 H           7.5480    7.8055    7.3063 H      74  UNL74       0.0521
    442 H           7.1036    6.7359    8.6725 H      74  UNL74       0.0521
    443 H           7.1694    6.0879    7.0127 H      74  UNL74       0.0521
    444 H           9.3607    7.0978    8.5162 H      74  UNL74       0.2090
    445 O           7.2990    7.1349   11.7921 O.3    75  UNL75      -0.3982
    446 C           8.2472    6.7480   10.8145 C.3    75  UNL75       0.0330
    447 H           7.7879    6.0400   10.1202 H      75  UNL75       0.0521
    448 H           9.1091    6.2877   11.3038 H      75  UNL75       0.0521
    449 H           8.5732    7.6343   10.2652 H      75  UNL75       0.0521
    450 H           7.0286    6.3282   12.2628 H      75  UNL75       0.2090
    451 O           7.1589    9.0401    1.4364 O.3    76  UNL76      -0.3982
    452 C           6.0566    9.4099    2.2442 C.3    76  UNL76       0.0330
    453 H           5.2539    9.7972    1.6118 H      76  UNL76       0.0521
    454 H           6.3694   10.1721    2.9621 H      76  UNL76       0.0521
    455 H           5.7000    8.5292    2.7835 H      76  UNL76       0.0521
    456 H           7.4534    9.8413    0.9706 H      76  UNL76       0.2090
    457 O           9.0811    9.3490    4.8512 O.3    77  UNL77      -0.3982
    458 C           7.6749    9.3490    5.0154 C.3    77  UNL77       0.0330
    459 H           7.4013    8.6647    5.8223 H      77  UNL77       0.0521
    460 H           7.1983    9.0384    4.0825 H      77  UNL77       0.0521
    461 H           7.3470   10.3594    5.2706 H      77  UNL77       0.0521
    462 H           9.3424    8.4400    4.6255 H      77  UNL77       0.2090
    463 O           6.9262    9.7867    7.8135 O.3    78  UNL78      -0.3982
    464 C           8.2999    9.5796    8.0866 C.3    78  UNL78       0.0330
    465 H           8.7330   10.4955    8.4963 H      78  UNL78       0.0521
    466 H           8.8171    9.2993    7.1658 H      78  UNL78       0.0521
    467 H           8.3993    8.7736    8.8175 H      78  UNL78       0.0521
    468 H           6.8697   10.5068    7.1626 H      78  UNL78       0.2090
    469 O           4.9188    9.2066   11.7373 O.3    79  UNL79      -0.3982
    470 C           6.2502    9.5218   11.3733 C.3    79  UNL79       0.0330
    471 H           6.5995    8.8143   10.6172 H      79  UNL79       0.0521
    472 H           6.8915    9.4736   12.2567 H      79  UNL79       0.0521
    473 H           6.2761   10.5336   10.9619 H      79  UNL79       0.0521
    474 H           4.9275    8.3040   12.0987 H      79  UNL79       0.2090
    475 O           7.3817   12.4561   -0.7503 O.3    80  UNL80      -0.3982
    476 C           5.9754   12.6203   -0.7503 C.3    80  UNL80       0.0330
    477 H           5.5234   11.8989   -0.0651 H      80  UNL80       0.0521
    478 H           5.5901   12.4693   -1.7616 H      80  UNL80       0.0521
    479 H           5.7360   13.6335   -0.4191 H      80  UNL80       0.0521
    480 H           7.5634   11.5485   -1.0483 H      80  UNL80       0.2090
    481 O           8.0579   12.6007    2.0968 O.3    81  UNL81      -0.3982
    482 C           6.6872   12.7416    2.4218 C.3    81  UNL81       0.0330
    483 H           6.3520   11.8639    2.9801 H      81  UNL81       0.0521
    484 H           6.1033   12.8478    1.5043 H      81  UNL81       0.0521
    485 H           6.5582   13.6341    3.0386 H      81  UNL81       0.0521
    486 H           8.1411   11.8011    1.5497 H      81  UNL81       0.2090
    487 O           9.5229   12.2524    4.7512 O.3    82  UNL82      -0.3982
    488 C           8.1199   12.4114    4.8547 C.3    82  UNL82       0.0330
    489 H           7.7718   11.9798    5.7965 H      82  UNL82       0.0521
    490 H           7.6328   11.9148    4.0120 H      82  UNL82       0.0521
    491 H           7.8806   13.4772    4.8345 H      82  UNL82       0.0521
    492 H           9.7045   11.2973    4.7719 H      82  UNL82       0.2090
    493 O           9.0777   12.4973    7.7469 O.3    83  UNL83      -0.3982
    494 C           7.7330   12.7364    8.1199 C.3    83  UNL83       0.0330
    495 H           7.2739   11.8014    8.4508 H      83  UNL83       0.0521
    496 H           7.1840   13.1423    7.2668 H      83  UNL83       0.0521
    497 H           7.7146   13.4588    8.9393 H      83  UNL83       0.0521
    498 H           9.0619   11.8531    7.0187 H      83  UNL83       0.2090
    499 O           7.7061   13.3626   11.3208 O.3    84  UNL84      -0.3982
    500 C           8.2693   12.0636   11.3208 C.3    84  UNL84       0.0330
    501 H           7.5364   11.3477   11.7012 H      84  UNL84       0.0521
    502 H           9.1640   12.0535   11.9479 H      84  UNL84       0.0521
    503 H           8.5413   11.7943   10.2975 H      84  UNL84       0.0521
    504 H           7.4749   13.5738   12.2414 H      84  UNL84       0.2090
    505 O           8.1683   16.4084    2.2987 O.3    85  UNL85      -0.3982
    506 C           8.4330   15.1147    1.7881 C.3    85  UNL85       0.0330
    507 H           7.8349   14.9474    0.8889 H      85  UNL85       0.0521
    508 H           8.1886   14.3661    2.5457 H      85  UNL85       0.0521
    509 H           9.4936   15.0422    1.5364 H      85  UNL85       0.0521
    510 H           7.2204   16.4426    2.5130 H      85  UNL85       0.2090
    511 O           9.3167   15.1277    5.2467 O.3    86  UNL86      -0.3982
    512 C           8.1239   15.6760    4.7166 C.3    86  UNL86       0.0330
    513 H           7.4093   15.8468    5.5256 H      86  UNL86       0.0521
    514 H           7.7005   14.9874    3.9814 H      86  UNL86       0.0521
    515 H           8.3552   16.6269    4.2309 H      86  UNL86       0.0521
    516 H           9.0800   14.2853    5.6709 H      86  UNL86       0.2090
    517 O           8.9882   16.7852    8.1114 O.3    87  UNL87      -0.3982
    518 C           7.8982   15.9926    7.6778 C.3    87  UNL87       0.0330
    519 H           8.2715   15.1397    7.1055 H      87  UNL87       0.0521
    520 H           7.2310   16.5968    7.0582 H      87  UNL87       0.0521
    521 H           7.3519   15.6309    8.5521 H      87  UNL87       0.0521
    522 H           9.4536   17.0916    7.3145 H      87  UNL87       0.2090
    523 O           9.0042   14.8394   10.0152 O.3    88  UNL88      -0.3982
    524 C           7.9352   15.5892   10.5626 C.3    88  UNL88       0.0330
    525 H           6.9880   15.2244   10.1575 H      88  UNL88       0.0521
    526 H           8.0664   16.6457   10.3163 H      88  UNL88       0.0521
    527 H           7.9355   15.4677   11.6483 H      88  UNL88       0.0521
    528 H           8.9783   14.9667    9.0515 H      88  UNL88       0.2090
    529 O          10.5084    1.1138   -0.5527 O.3    89  UNL89      -0.3982
    530 C           9.0926    1.1138   -0.5527 C.3    89  UNL89       0.0330
    531 H           8.7273    1.4475    0.4217 H      89  UNL89       0.0521
    532 H           8.7274    0.1061   -0.7651 H      89  UNL89       0.0521
    533 H           8.7373    1.7984   -1.3265 H      89  UNL89       0.0521
    534 H          10.7941    0.4980    0.1435 H      89  UNL89       0.2090
    535 O          12.0353    0.9999    2.0318 O.3    90  UNL90      -0.3982
    536 C          10.6625    0.6759    2.1540 C.3    90  UNL90       0.0330
    537 H          10.0590    1.4646    1.6978 H      90  UNL90       0.0521
    538 H          10.4048    0.5704    3.2106 H      90  UNL90       0.0521
    539 H          10.4731   -0.2687    1.6389 H      90  UNL90       0.0521
    540 H          12.1727    1.8420    2.4981 H      90  UNL90       0.2090
    541 O          10.8688    1.2270    5.2932 O.3    91  UNL91      -0.3982
    542 C           9.4696    1.0631    5.1521 C.3    91  UNL91       0.0330
    543 H           9.1444    0.1907    5.7244 H      91  UNL91       0.0521
    544 H           9.2219    0.9322    4.0959 H      91  UNL91       0.0521
    545 H           8.9671    1.9548    5.5341 H      91  UNL91       0.0521
    546 H          11.2873    0.4209    4.9461 H      91  UNL91       0.2090
    547 O          12.6331    0.7609    7.7443 O.3    92  UNL92      -0.3982
    548 C          11.2647    1.0871    7.9041 C.3    92  UNL92       0.0330
    549 H          11.0305    1.9781    7.3162 H      92  UNL92       0.0521
    550 H          11.0535    1.2687    8.9607 H      92  UNL92       0.0521
    551 H          10.6566    0.2506    7.5518 H      92  UNL92       0.0521
    552 H          13.1474    1.5213    8.0651 H      92  UNL92       0.2090
    553 O          12.5153    0.3045   11.6668 O.3    93  UNL93      -0.3982
    554 C          11.3320    1.0817   11.6668 C.3    93  UNL93       0.0330
    555 H          10.9779    1.2081   10.6407 H      93  UNL93       0.0521
    556 H          11.5355    2.0568   12.1161 H      93  UNL93       0.0521
    557 H          10.5678    0.5655   12.2526 H      93  UNL93       0.0521
    558 H          13.1744    0.7876   11.1398 H      93  UNL93       0.2090
    559 O          11.3414    4.5654    0.8355 O.3    94  UNL94      -0.3982
    560 C          10.9020    3.3339    0.2925 C.3    94  UNL94       0.0330
    561 H          10.8508    3.4123   -0.7963 H      94  UNL94       0.0521
    562 H           9.9177    3.0867    0.6974 H      94  UNL94       0.0521
    563 H          11.6132    2.5510    0.5662 H      94  UNL94       0.0521
    564 H          10.6910    5.2402    0.5762 H      94  UNL94       0.2090
    565 O           9.7622    2.8783    3.7290 O.3    95  UNL95      -0.3982
    566 C          10.3061    3.6301    2.6597 C.3    95  UNL95       0.0330
    567 H          11.0786    3.0433    2.1564 H      95  UNL95       0.0521
    568 H          10.7329    4.5588    3.0462 H      95  UNL95       0.0521
    569 H           9.5099    3.8654    1.9497 H      95  UNL95       0.0521
    570 H          10.4916    2.6846    4.3422 H      95  UNL95       0.2090
    571 O          12.2099    4.0134    4.5148 O.3    96  UNL96      -0.3982
    572 C          11.6559    3.9364    5.8154 C.3    96  UNL96       0.0330
    573 H          12.2155    3.2087    6.4084 H      96  UNL96       0.0521
    574 H          10.6068    3.6382    5.7484 H      96  UNL96       0.0521
    575 H          11.7236    4.9185    6.2892 H      96  UNL96       0.0521
    576 H          12.1356    3.1280    4.1197 H      96  UNL96       0.2090
    577 O          13.3010    3.4708    8.6522 O.3    97  UNL97      -0.3982
    578 C          12.5164    3.3675    9.8262 C.3    97  UNL97       0.0330
    579 H          11.4642    3.2543    9.5536 H      97  UNL97       0.0521
    580 H          12.6514    4.2643   10.4358 H      97  UNL97       0.0521
    581 H          12.8398    2.4918   10.3938 H      97  UNL97       0.0521
    582 H          12.9912    4.2562    8.1698 H      97  UNL97       0.2090
    583 O          11.3001    6.9127   -0.8705 O.3    98  UNL98      -0.3982
    584 C           9.9033    6.7033   -0.7719 C.3    98  UNL98       0.0330
    585 H           9.3764    7.6229   -1.0383 H      98  UNL98       0.0521
    586 H           9.6495    6.4080    0.2490 H      98  UNL98       0.0521
    587 H           9.6138    5.9072   -1.4618 H      98  UNL98       0.0521
    588 H          11.5270    7.6239   -0.2475 H      98  UNL98       0.2090
    589 O          12.4090    5.8248    1.8978 O.3    99  UNL99      -0.3982
    590 C          11.3701    6.7381    2.1997 C.3    99  UNL99       0.0330
    591 H          10.8478    7.0141    1.2803 H      99  UNL99       0.0521
    592 H          11.7923    7.6280    2.6727 H      99  UNL99       0.0521
    593 H          10.6669    6.2618    2.8868 H      99  UNL99       0.0521
    594 H          13.0169    6.2752    1.2869 H      99  UNL99       0.2090
    595 O          12.8211    6.5353    4.3224 O.3   100  UNL100     -0.3982
    596 C          11.4972    6.5465    4.8241 C.3   100  UNL100      0.0330
    597 H          11.5128    6.7816    5.8912 H     100  UNL100      0.0521
    598 H          11.0370    5.5686    4.6623 H     100  UNL100      0.0521
    599 H          10.9226    7.3093    4.2935 H     100  UNL100      0.0521
    600 H          13.3062    5.8492    4.8118 H     100  UNL100      0.2090
    601 O          11.0601    5.2001    8.5202 O.3   101  UNL101     -0.3982
    602 C          11.7499    6.3482    8.0612 C.3   101  UNL101      0.0330
    603 H          12.2792    6.8144    8.8959 H     101  UNL101      0.0521
    604 H          11.0368    7.0539    7.6283 H     101  UNL101      0.0521
    605 H          12.4711    6.0477    7.2975 H     101  UNL101      0.0521
    606 H          10.4278    5.4979    9.1962 H     101  UNL101      0.2090
    607 O          10.7925    7.0862   11.2516 O.3   102  UNL102     -0.3982
    608 C          11.9790    6.3191   11.3411 C.3   102  UNL102      0.0330
    609 H          11.7631    5.3685   11.8352 H     102  UNL102      0.0521
    610 H          12.7307    6.8739   11.9078 H     102  UNL102      0.0521
    611 H          12.3545    6.1264   10.3334 H     102  UNL102      0.0521
    612 H          10.4831    7.2411   12.1603 H     102  UNL102      0.2090
    613 O          11.8985    9.6406   -1.5256 O.3   103  UNL103     -0.3982
    614 C          10.5323    9.4977   -1.1829 C.3   103  UNL103      0.0330
    615 H          10.4437    8.8846   -0.2826 H     103  UNL103      0.0521
    616 H           9.9953    9.0281   -2.0106 H     103  UNL103      0.0521
    617 H          10.1088   10.4863   -0.9910 H     103  UNL103      0.0521
    618 H          12.2467    8.7478   -1.6901 H     103  UNL103      0.2090
    619 O           9.1431    8.7955    2.5515 O.3   104  UNL104     -0.3982
    620 C           9.3465   10.1842    2.7375 C.3   104  UNL104      0.0330
    621 H           9.4308   10.6747    1.7645 H     104  UNL104      0.0521
    622 H          10.2577   10.3453    3.3188 H     104  UNL104      0.0521
    623 H           8.4932   10.5988    3.2794 H     104  UNL104      0.0521
    624 H           9.9157    8.4558    2.0684 H     104  UNL104      0.2090
    625 O          12.7295    9.6722    5.3416 O.3   105  UNL105     -0.3982
    626 C          11.3369    9.5945    5.0985 C.3   105  UNL105      0.0330
    627 H          10.8849    8.8782    5.7891 H     105  UNL105      0.0521
    628 H          11.1632    9.2810    4.0663 H     105  UNL105      0.0521
    629 H          10.8930   10.5801    5.2572 H     105  UNL105      0.0521
    630 H          13.0954    8.7836    5.1930 H     105  UNL105      0.2090
    631 O          12.1820    8.8225    8.0374 O.3   106  UNL106     -0.3982
    632 C          10.8574    9.2778    7.8311 C.3   106  UNL106      0.0330
    633 H          10.8556   10.0656    7.0737 H     106  UNL106      0.0521
    634 H          10.4522    9.6605    8.7711 H     106  UNL106      0.0521
    635 H          10.2441    8.4422    7.4860 H     106  UNL106      0.0521
    636 H          12.7020    9.5853    8.3430 H     106  UNL106      0.2090
    637 O           8.9773    9.4198   11.7348 O.3   107  UNL107     -0.3982
    638 C          10.2146    9.6482   11.0856 C.3   107  UNL107      0.0330
    639 H          10.4284    8.8203   10.4051 H     107  UNL107      0.0521
    640 H          11.0081    9.7346   11.8319 H     107  UNL107      0.0521
    641 H          10.1506   10.5782   10.5158 H     107  UNL107      0.0521
    642 H           9.0646    8.5887   12.2319 H     107  UNL107      0.2090
    643 O          11.5290   12.3170   -0.6584 O.3   108  UNL108     -0.3982
    644 C          10.1228   12.4812   -0.6584 C.3   108  UNL108      0.0330
    645 H           9.6806   11.8439    0.1113 H     108  UNL108      0.0521
    646 H           9.7240   12.2150   -1.6403 H     108  UNL108      0.0521
    647 H           9.8870   13.5260   -0.4429 H     108  UNL108      0.0521
    648 H          11.7074   11.3810   -0.8523 H     108  UNL108      0.2090
    649 O          12.6048   12.6326    2.5823 O.3   109  UNL109     -0.3982
    650 C          11.1985   12.5765    2.4280 C.3   109  UNL109      0.0330
    651 H          10.7563   12.0718    3.2905 H     109  UNL109      0.0521
    652 H          10.9531   12.0358    1.5107 H     109  UNL109      0.0521
    653 H          10.8072   13.5945    2.3641 H     109  UNL109      0.0521
    654 H          12.9231   11.7154    2.6361 H     109  UNL109      0.2090
    655 O          12.6970   12.0326    4.8704 O.3   110  UNL110     -0.3982
    656 C          11.6410   12.8776    5.2892 C.3   110  UNL110      0.0330
    657 H          10.9679   12.3223    5.9471 H     110  UNL110      0.0521
    658 H          11.0955   13.2410    4.4149 H     110  UNL110      0.0521
    659 H          12.0602   13.7271    5.8334 H     110  UNL110      0.0521
    660 H          12.2946   11.2886    4.3908 H     110  UNL110      0.2090
    661 O          12.8701   12.3824    8.0591 O.3   111  UNL111     -0.3982
    662 C          11.4566   12.4606    8.0810 C.3   111  UNL111      0.0330
    663 H          11.0354   11.6136    7.5337 H     111  UNL111      0.0521
    664 H          11.1356   13.3996    7.6237 H     111  UNL111      0.0521
    665 H          11.1150   12.4276    9.1182 H     111  UNL111      0.0521
    666 H          13.1435   12.4140    7.1265 H     111  UNL111      0.2090
    667 O          10.8086   12.8760   11.0598 O.3   112  UNL112     -0.3982
    668 C          11.9868   12.1730   11.4089 C.3   112  UNL112      0.0330
    669 H          11.7393   11.3691   12.1067 H     112  UNL112      0.0521
    670 H          12.7005   12.8614   11.8679 H     112  UNL112      0.0521
    671 H          12.4264   11.7452   10.5048 H     112  UNL112      0.0521
    672 H          10.4414   13.2440   11.8815 H     112  UNL112      0.2090
    673 O          10.4827   16.2947   -0.6239 O.3   113  UNL113     -0.3982
    674 C          11.4651   15.4470   -1.1903 C.3   113  UNL113      0.0330
    675 H          10.9772   14.6521   -1.7600 H     113  UNL113      0.0521
    676 H          12.0783   15.0163   -0.3950 H     113  UNL113      0.0521
    677 H          12.0990   16.0347   -1.8584 H     113  UNL113      0.0521
    678 H           9.9359   15.7456   -0.0364 H     113  UNL113      0.2090
    679 O          11.8281   15.1261    2.8185 O.3   114  UNL114     -0.3982
    680 C          12.7367   15.1270    1.7328 C.3   114  UNL114      0.0330
    681 H          12.5416   14.2632    1.0924 H     114  UNL114      0.0521
    682 H          13.7603   15.0881    2.1132 H     114  UNL114      0.0521
    683 H          12.5995   16.0443    1.1554 H     114  UNL114      0.0521
    684 H          11.9733   14.3009    3.3119 H     114  UNL114      0.2090
    685 O          12.7418   15.7181    4.7657 O.3   115  UNL115     -0.3982
    686 C          11.3356   15.7181    4.9299 C.3   115  UNL115      0.0330
    687 H          11.0892   15.9473    5.9697 H     115  UNL115      0.0521
    688 H          10.9361   14.7384    4.6570 H     115  UNL115      0.0521
    689 H          10.9018   16.4804    4.2785 H     115  UNL115      0.0521
    690 H          13.0984   15.0324    5.3557 H     115  UNL115      0.2090
    691 O          11.5504   17.4115    7.0558 O.3   116  UNL116     -0.3982
    692 C          11.5558   16.5354    8.1679 C.3   116  UNL116      0.0330
    693 H          12.4619   16.6980    8.7567 H     116  UNL116      0.0521
    694 H          11.5165   15.5009    7.8181 H     116  UNL116      0.0521
    695 H          10.6796   16.7418    8.7871 H     116  UNL116      0.0521
    696 H          12.3388   17.2048    6.5254 H     116  UNL116      0.2090
    697 O          11.3284   16.1419   11.1152 O.3   117  UNL117     -0.3982
    698 C          11.9281   15.0853   10.3882 C.3   117  UNL117      0.0330
    699 H          12.8810   15.4225    9.9729 H     117  UNL117      0.0521
    700 H          11.2592   14.7697    9.5839 H     117  UNL117      0.0521
    701 H          12.1044   14.2447   11.0634 H     117  UNL117      0.0521
    702 H          11.1841   16.8728   10.4903 H     117  UNL117      0.2090
    703 O          15.2903    1.1432   -0.4797 O.3   118  UNL118     -0.3982
    704 C          16.6204    0.7012   -0.6799 C.3   118  UNL118      0.0330
    705 H          16.7873    0.5152   -1.7438 H     118  UNL118      0.0521
    706 H          16.7911   -0.2141   -0.1079 H     118  UNL118      0.0521
    707 H          17.3083    1.4770   -0.3355 H     118  UNL118      0.0521
    708 H          14.7034    0.4346   -0.7943 H     118  UNL118      0.2090
    709 O          17.0083    1.3349    2.5642 O.3   119  UNL119     -0.3982
    710 C          15.5925    1.3349    2.5642 C.3   119  UNL119      0.0330
    711 H          15.2272    0.3767    2.9420 H     119  UNL119      0.0521
    712 H          15.2273    1.5010    1.5478 H     119  UNL119      0.0521
    713 H          15.2372    2.1392    3.2127 H     119  UNL119      0.0521
    714 H          17.2940    0.6113    1.9808 H     119  UNL119      0.2090
    715 O          14.8777    0.9673    5.1663 O.3   120  UNL120     -0.3982
    716 C          13.5506    0.7792    4.7103 C.3   120  UNL120      0.0330
    717 H          13.0642    1.7505    4.5912 H     120  UNL120      0.0521
    718 H          12.9998    0.1698    5.4309 H     120  UNL120      0.0521
    719 H          13.5756    0.2660    3.7462 H     120  UNL120      0.0521
    720 H          14.8235    1.4245    6.0228 H     120  UNL120      0.2090
    721 O          15.4218    0.7112    8.0711 O.3   121  UNL121     -0.3982
    722 C          16.7781    0.9308    7.7297 C.3   121  UNL121      0.0330
    723 H          17.2434   -0.0185    7.4526 H     121  UNL121      0.0521
    724 H          17.3025    1.3709    8.5814 H     121  UNL121      0.0521
    725 H          16.8242    1.6179    6.8816 H     121  UNL121      0.0521
    726 H          15.4128    0.0982    8.8260 H     121  UNL121      0.2090
    727 O          17.0304    0.7571   11.1737 O.3   122  UNL122     -0.3982
    728 C          15.6337    0.9000   11.3557 C.3   122  UNL122      0.0330
    729 H          15.1763   -0.0868   11.4623 H     122  UNL122      0.0521
    730 H          15.2049    1.4212   10.4964 H     122  UNL122      0.0521
    731 H          15.4512    1.4835   12.2612 H     122  UNL122      0.0521
    732 H          17.1611    0.2356   10.3635 H     122  UNL122      0.2090
    733 O          15.0082    3.9049    1.8842 O.3   123  UNL123     -0.3982
    734 C          14.0218    3.5925    0.9177 C.3   123  UNL123      0.0330
    735 H          13.3953    4.4699    0.7384 H     123  UNL123      0.0521
    736 H          13.4095    2.7615    1.2762 H     123  UNL123      0.0521
    737 H          14.5153    3.3036   -0.0131 H     123  UNL123      0.0521
    738 H          14.5405    4.1573    2.6985 H     123  UNL123      0.2090
    739 O          14.5682    3.7854    5.3487 O.3   124  UNL124     -0.3982
    740 C          15.9175    3.6753    4.9343 C.3   124  UNL124      0.0330
    741 H          16.0448    4.1710    3.9687 H     124  UNL124      0.0521
    742 H          16.1896    2.6201    4.8528 H     124  UNL124      0.0521
    743 H          16.5577    4.1580    5.6764 H     124  UNL124      0.0521
    744 H          14.0247    3.3485    4.6711 H     124  UNL124      0.2090
    745 O          17.0201    3.8859    7.9215 O.3   125  UNL125     -0.3982
    746 C          15.6043    3.8859    7.9215 C.3   125  UNL125      0.0330
    747 H          15.2390    2.8659    7.7785 H     125  UNL125      0.0521
    748 H          15.2391    4.5311    7.1188 H     125  UNL125      0.0521
    749 H          15.2490    4.2665    8.8820 H     125  UNL125      0.0521
    750 H          17.3058    3.5435    7.0574 H     125  UNL125      0.2090
    751 O          15.1478    3.6158   11.6389 O.3   126  UNL126     -0.3982
    752 C          16.5557    3.7578   11.5909 C.3   126  UNL126      0.0330
    753 H          16.8359    4.7468   11.9618 H     126  UNL126      0.0521
    754 H          16.9006    3.6316   10.5617 H     126  UNL126      0.0521
    755 H          17.0117    2.9916   12.2222 H     126  UNL126      0.0521
    756 H          14.7712    4.3085   11.0697 H     126  UNL126      0.2090
    757 O          16.4263    6.6182   -0.6675 O.3   127  UNL127     -0.3982
    758 C          15.0485    6.5994   -0.3424 C.3   127  UNL127      0.0330
    759 H          14.4942    7.2027   -1.0657 H     127  UNL127      0.0521
    760 H          14.9056    6.9970    0.6653 H     127  UNL127      0.0521
    761 H          14.6887    5.5685   -0.3794 H     127  UNL127      0.0521
    762 H          16.7170    7.5452   -0.6264 H     127  UNL127      0.2090
    763 O          16.4423    5.6608    1.9884 O.3   128  UNL128     -0.3982
    764 C          16.7075    7.0413    2.1568 C.3   128  UNL128      0.0330
    765 H          17.2532    7.4171    1.2877 H     128  UNL128      0.0521
    766 H          17.2977    7.1918    3.0640 H     128  UNL128      0.0521
    767 H          15.7595    7.5766    2.2485 H     128  UNL128      0.0521
    768 H          17.3015    5.2123    1.9100 H     128  UNL128      0.2090
    769 O          16.8494    6.6268    5.1817 O.3   129  UNL129     -0.3982
    770 C          15.4432    6.6458    5.0187 C.3   129  UNL129      0.0330
    771 H          15.0009    5.8080    5.5634 H     129  UNL129      0.0521
    772 H          15.1977    6.5738    3.9563 H     129  UNL129      0.0521
    773 H          15.0519    7.5845    5.4180 H     129  UNL129      0.0521
    774 H          17.1678    5.7828    4.8185 H     129  UNL129      0.2090
    775 O          15.8369    6.7548    7.3909 O.3   130  UNL130     -0.3982
    776 C          14.4315    6.6502    7.5264 C.3   130  UNL130      0.0330
    777 H          14.0947    7.2910    8.3451 H     130  UNL130      0.0521
    778 H          14.1603    5.6110    7.7277 H     130  UNL130      0.0521
    779 H          13.9597    6.9738    6.5956 H     130  UNL130      0.0521
    780 H          16.2276    6.4612    8.2315 H     130  UNL130      0.2090
    781 O          17.2537    6.9319   10.2043 O.3   131  UNL131     -0.3982
    782 C          15.9697    6.4187   10.5083 C.3   131  UNL131      0.0330
    783 H          15.2051    7.0590   10.0614 H     131  UNL131      0.0521
    784 H          15.8392    6.3797   11.5925 H     131  UNL131      0.0521
    785 H          15.8835    5.4104   10.0967 H     131  UNL131      0.0521
    786 H          17.3004    7.8268   10.5820 H     131  UNL131      0.2090
    787 O          14.7583    9.4345   -1.3293 O.3   132  UNL132     -0.3982
    788 C          15.6120    9.5715   -0.2082 C.3   132  UNL132      0.0330
    789 H          15.3803   10.5021    0.3159 H     132  UNL132      0.0521
    790 H          16.6530    9.5775   -0.5405 H     132  UNL132      0.0521
    791 H          15.4519    8.7267    0.4657 H     132  UNL132      0.0521
    792 H          14.9229   10.1979   -1.9088 H     132  UNL132      0.2090
    793 O          12.8317    9.9749    1.1420 O.3   133  UNL133     -0.3982
    794 C          13.6053    9.5886    2.2631 C.3   133  UNL133      0.0330
    795 H          13.8208    8.5187    2.2071 H     133  UNL133      0.0521
    796 H          13.0559    9.8130    3.1806 H     133  UNL133      0.0521
    797 H          14.5437   10.1479    2.2570 H     133  UNL133      0.0521
    798 H          12.0059    9.4624    1.1744 H     133  UNL133      0.2090
    799 O          17.0891    9.0841    5.1856 O.3   134  UNL134     -0.3982
    800 C          15.9135    9.5008    4.5158 C.3   134  UNL134      0.0330
    801 H          16.0844   10.4743    4.0493 H     134  UNL134      0.0521
    802 H          15.0898    9.5671    5.2307 H     134  UNL134      0.0521
    803 H          15.6654    8.7681    3.7444 H     134  UNL134      0.0521
    804 H          17.2841    9.7533    5.8636 H     134  UNL134      0.2090
    805 O          15.9171    8.8854    7.4698 O.3   135  UNL135     -0.3982
    806 C          14.5669    9.3029    7.5542 C.3   135  UNL135      0.0330
    807 H          14.4893   10.3513    7.2556 H     135  UNL135      0.0521
    808 H          14.2092    9.1775    8.5791 H     135  UNL135      0.0521
    809 H          13.9625    8.6893    6.8820 H     135  UNL135      0.0521
    810 H          16.4284    9.4475    8.0766 H     135  UNL135      0.2090
    811 O          14.2755    9.0393   11.4569 O.3   136  UNL136     -0.3982
    812 C          15.6084    9.4898   11.6158 C.3   136  UNL136      0.0330
    813 H          15.6156   10.4068   12.2103 H     136  UNL136      0.0521
    814 H          16.0504    9.6759   10.6339 H     136  UNL136      0.0521
    815 H          16.1848    8.7187   12.1322 H     136  UNL136      0.0521
    816 H          13.7889    9.7438   10.9961 H     136  UNL136      0.2090
    817 O          15.7337   12.8686   -0.7613 O.3   137  UNL137     -0.3982
    818 C          14.3831   12.6892   -0.3762 C.3   137  UNL137      0.0330
    819 H          14.3436   12.2081    0.6042 H     137  UNL137      0.0521
    820 H          13.8708   12.0717   -1.1180 H     137  UNL137      0.0521
    821 H          13.8969   13.6660   -0.3201 H     137  UNL137      0.0521
    822 H          16.1387   11.9856   -0.8026 H     137  UNL137      0.2090
    823 O          16.3159   11.3988    2.0791 O.3   138  UNL138     -0.3982
    824 C          16.6769   12.7660    2.0104 C.3   138  UNL138      0.0330
    825 H          17.3100   12.9332    1.1354 H     138  UNL138      0.0521
    826 H          17.2124   13.0485    2.9201 H     138  UNL138      0.0521
    827 H          15.7701   13.3689    1.9220 H     138  UNL138      0.0521
    828 H          17.1403   10.8891    2.1571 H     138  UNL138      0.2090
    829 O          16.7084   12.8804    5.0788 O.3   139  UNL139     -0.3982
    830 C          15.3178   12.6782    4.9058 C.3   139  UNL139      0.0330
    831 H          14.9736   11.9004    5.5920 H     139  UNL139      0.0521
    832 H          15.1174   12.3828    3.8731 H     139  UNL139      0.0521
    833 H          14.7933   13.6115    5.1238 H     139  UNL139      0.0521
    834 H          17.1469   12.0359    4.8785 H     139  UNL139      0.2090
    835 O          16.3731   13.1915    7.7644 O.3   140  UNL140     -0.3982
    836 C          16.2785   11.7933    7.9662 C.3   140  UNL140      0.0330
    837 H          16.9375   11.4971    8.7861 H     140  UNL140      0.0521
    838 H          16.5632   11.2719    7.0491 H     140  UNL140      0.0521
    839 H          15.2468   11.5401    8.2212 H     140  UNL140      0.0521
    840 H          17.2990   13.3857    7.5397 H     140  UNL140      0.2090
    841 O          16.2958   12.6964   10.4478 O.3   141  UNL141     -0.3982
    842 C          14.9338   12.3394   10.5968 C.3   141  UNL141      0.0330
    843 H          14.3012   13.1473   10.2207 H     141  UNL141      0.0521
    844 H          14.7181   12.1544   11.6519 H     141  UNL141      0.0521
    845 H          14.7400   11.4303   10.0227 H     141  UNL141      0.0521
    846 H          16.4375   13.5057   10.9678 H     141  UNL141      0.2090
    847 O          16.3796   17.2533    2.1144 O.3   142  UNL142     -0.3982
    848 C          15.7099   16.0208    2.3068 C.3   142  UNL142      0.0330
    849 H          16.3642   15.3296    2.8438 H     142  UNL142      0.0521
    850 H          15.4345   15.5996    1.3369 H     142  UNL142      0.0521
    851 H          14.8064   16.1955    2.8956 H     142  UNL142      0.0521
    852 H          17.1764   17.0666    1.5893 H     142  UNL142      0.2090
    853 O          16.8383   16.3944    5.3046 O.3   143  UNL143     -0.3982
    854 C          15.4856   16.6254    4.9563 C.3   143  UNL143      0.0330
    855 H          15.4314   17.4218    4.2099 H     143  UNL143      0.0521
    856 H          14.9220   16.9088    5.8486 H     143  UNL143      0.0521
    857 H          15.0646   15.7080    4.5383 H     143  UNL143      0.0521
    858 H          17.1845   17.2253    5.6723 H     143  UNL143      0.2090
    859 O          14.4523   16.4800    8.2403 O.3   144  UNL144     -0.3982
    860 C          14.8836   15.1619    7.9557 C.3   144  UNL144      0.0330
    861 H          15.9446   15.0642    8.1987 H     144  UNL144      0.0521
    862 H          14.7197   14.9445    6.8975 H     144  UNL144      0.0521
    863 H          14.3069   14.4604    8.5631 H     144  UNL144      0.0521
    864 H          14.9815   17.0795    7.6870 H     144  UNL144      0.2090
    865 O          13.9831   16.6334   11.9118 O.3   145  UNL145     -0.3982
    866 C          15.2070   16.0340   11.5282 C.3   145  UNL145      0.0330
    867 H          16.0135   16.7673   11.6072 H     145  UNL145      0.0521
    868 H          15.1295   15.6711   10.5004 H     145  UNL145      0.0521
    869 H          15.4151   15.1935   12.1943 H     145  UNL145      0.0521
    870 H          13.8251   17.3752   11.3032 H     145  UNL145      0.2090
@<TRIPOS>BOND
     1     1     2    1
     2     1     6    1
     3     2     3    1
     4     2     4    1
     5     2     5    1
     6     7     8    1
     7     7    12    1
     8     8     9    1
     9     8    10    1
    10     8    11    1
    11    13    14    1
    12    13    18    1
    13    14    15    1
    14    14    16    1
    15    14    17    1
    16    19    20    1
    17    19    24    1
    18    20    21    1
    19    20    22    1
    20    20    23    1
    21    25    26    1
    22    25    30    1
    23    26    27    1
    24    26    28    1
    25    26    29    1
    26    31    32    1
    27    31    36    1
    28    32    33    1
    29    32    34    1
    30    32    35    1
    31    37    38    1
    32    37    42    1
    33    38    39    1
    34    38    40    1
    35    38    41    1
    36    43    44    1
    37    43    48    1
    38    44    45    1
    39    44    46    1
    40    44    47    1
    41    49    50    1
    42    49    54    1
    43    50    51    1
    44    50    52    1
    45    50    53    1
    46    55    56    1
    47    55    60    1
    48    56    57    1
    49    56    58    1
    50    56    59    1
    51    61    62    1
    52    61    66    1
    53    62    63    1
    54    62    64    1
    55    62    65    1
    56    67    68    1
    57    67    72    1
    58    68    69    1
    59    68    70    1
    60    68    71    1
    61    73    74    1
    62    73    78    1
    63    74    75    1
    64    74    76    1
    65    74    77    1
    66    79    80    1
    67    79    84    1
    68    80    81    1
    69    80    82    1
    70    80    83    1
    71    85    86    1
    72    85    90    1
    73    86    87    1
    74    86    88    1
    75    86    89    1
    76    91    92    1
    77    91    96    1
    78    92    93    1
    79    92    94    1
    80    92    95    1
    81    97    98    1
    82    97   102    1
    83    98    99    1
    84    98   100    1
    85    98   101    1
    86   103   104    1
    87   103   108    1
    88   104   105    1
    89   104   106    1
    90   104   107    1
    91   109   110    1
    92   109   114    1
    93   110   111    1
    94   110   112    1
    95   110   113    1
    96   115   116    1
    97   115   120    1
    98   116   117    1
    99   116   118    1
   100   116   119    1
   101   121   122    1
   102   121   126    1
   103   122   123    1
   104   122   124    1
   105   122   125    1
   106   127   128    1
   107   127   132    1
   108   128   129    1
   109   128   130    1
   110   128   131    1
   111   133   134    1
   112   133   138    1
   113   134   135    1
   114   134   136    1
   115   134   137    1
   116   139   140    1
   117   139   144    1
   118   140   141    1
   119   140   142    1
   120   140   143    1
   121   145   146    1
   122   145   150    1
   123   146   147    1
   124   146   148    1
   125   146   149    1
   126   151   152    1
   127   151   156    1
   128   152   153    1
   129   152   154    1
   130   152   155    1
   131   157   158    1
   132   157   162    1
   133   158   159    1
   134   158   160    1
   135   158   161    1
   136   163   164    1
   137   163   168    1
   138   164   165    1
   139   164   166    1
   140   164   167    1
   141   169   170    1
   142   169   174    1
   143   170   171    1
   144   170   172    1
   145   170   173    1
   146   175   176    1
   147   175   180    1
   148   176   177    1
   149   176   178    1
   150   176   179    1
   151   181   182    1
   152   181   186    1
   153   182   183    1
   154   182   184    1
   155   182   185    1
   156   187   188    1
   157   187   192    1
   158   188   189    1
   159   188   190    1
   160   188   191    1
   161   193   194    1
   162   193   198    1
   163   194   195    1
   164   194   196    1
   165   194   197    1
   166   199   200    1
   167   199   204    1
   168   200   201    1
   169   200   202    1
   170   200   203    1
   171   205   206    1
   172   205   210    1
   173   206   207    1
   174   206   208    1
   175   206   209    1
   176   211   212    1
   177   211   216    1
   178   212   213    1
   179   212   214    1
   180   212   215    1
   181   217   218    1
   182   217   222    1
   183   218   219    1
   184   218   220    1
   185   218   221    1
   186   223   224    1
   187   223   228    1
   188   224   225    1
   189   224   226    1
   190   224   227    1
   191   229   230    1
   192   229   234    1
   193   230   231    1
   194   230   232    1
   195   230   233    1
   196   235   236    1
   197   235   240    1
   198   236   237    1
   199   236   238    1
   200   236   239    1
   201   241   242    1
   202   241   246    1
   203   242   243    1
   204   242   244    1
   205   242   245    1
   206   247   248    1
   207   247   252    1
   208   248   249    1
   209   248   250    1
   210   248   251    1
   211   253   254    1
   212   253   258    1
   213   254   255    1
   214   254   256    1
   215   254   257    1
   216   259   260    1
   217   259   264    1
   218   260   261    1
   219   260   262    1
   220   260   263    1
   221   265   266    1
   222   265   270    1
   223   266   267    1
   224   266   268    1
   225   266   269    1
   226   271   272    1
   227   271   276    1
   228   272   273    1
   229   272   274    1
   230   272   275    1
   231   277   278    1
   232   277   282    1
   233   278   279    1
   234   278   280    1
   235   278   281    1
   236   283   284    1
   237   283   288    1
   238   284   285    1
   239   284   286    1
   240   284   287    1
   241   289   290    1
   242   289   294    1
   243   290   291    1
   244   290   292    1
   245   290   293    1
   246   295   296    1
   247   295   300    1
   248   296   297    1
   249   296   298    1
   250   296   299    1
   251   301   302    1
   252   301   306    1
   253   302   303    1
   254   302   304    1
   255   302   305    1
   256   307   308    1
   257   307   312    1
   258   308   309    1
   259   308   310    1
   260   308   311    1
   261   313   314    1
   262   313   318    1
   263   314   315    1
   264   314   316    1
   265   314   317    1
   266   319   320    1
   267   319   324    1
   268   320   321    1
   269   320   322    1
   270   320   323    1
   271   325   326    1
   272   325   330    1
   273   326   327    1
   274   326   328    1
   275   326   329    1
   276   331   332    1
   277   331   336    1
   278   332   333    1
   279   332   334    1
   280   332   335    1
   281   337   338    1
   282   337   342    1
   283   338   339    1
   284   338   340    1
   285   338   341    1
   286   343   344    1
   287   343   348    1
   288   344   345    1
   289   344   346    1
   290   344   347    1
   291   349   350    1
   292   349   354    1
   293   350   351    1
   294   350   352    1
   295   350   353    1
   296   355   356    1
   297   355   360    1
   298   356   357    1
   299   356   358    1
   300   356   359    1
   301   361   362    1
   302   361   366    1
   303   362   363    1
   304   362   364    1
   305   362   365    1
   306   367   368    1
   307   367   372    1
   308   368   369    1
   309   368   370    1
   310   368   371    1
   311   373   374    1
   312   373   378    1
   313   374   375    1
   314   374   376    1
   315   374   377    1
   316   379   380    1
   317   379   384    1
   318   380   381    1
   319   380   382    1
   320   380   383    1
   321   385   386    1
   322   385   390    1
   323   386   387    1
   324   386   388    1
   325   386   389    1
   326   391   392    1
   327   391   396    1
   328   392   393    1
   329   392   394    1
   330   392   395    1
   331   397   398    1
   332   397   402    1
   333   398   399    1
   334   398   400    1
   335   398   401    1
   336   403   404    1
   337   403   408    1
   338   404   405    1
   339   404   406    1
   340   404   407    1
   341   409   410    1
   342   409   414    1
   343   410   411    1
   344   410   412    1
   345   410   413    1
   346   415   416    1
   347   415   420    1
   348   416   417    1
   349   416   418    1
   350   416   419    1
   351   421   422    1
   352   421   426    1
   353   422   423    1
   354   422   424    1
   355   422   425    1
   356   427   428    1
   357   427   432    1
   358   428   429    1
   359   428   430    1
   360   428   431    1
   361   433   434    1
   362   433   438    1
   363   434   435    1
   364   434   436    1
   365   434   437    1
   366   439   440    1
   367   439   444    1
   368   440   441    1
   369   440   442    1
   370   440   443    1
   371   445   446    1
   372   445   450    1
   373   446   447    1
   374   446   448    1
   375   446   449    1
   376   451   452    1
   377   451   456    1
   378   452   453    1
   379   452   454    1
   380   452   455    1
   381   457   458    1
   382   457   462    1
   383   458   459    1
   384   458   460    1
   385   458   461    1
   386   463   464    1
   387   463   468    1
   388   464   465    1
   389   464   466    1
   390   464   467    1
   391   469   470    1
   392   469   474    1
   393   470   471    1
   394   470   472    1
   395   470   473    1
   396   475   476    1
   397   475   480    1
   398   476   477    1
   399   476   478    1
   400   476   479    1
   401   481   482    1
   402   481   486    1
   403   482   483    1
   404   482   484    1
   405   482   485    1
   406   487   488    1
   407   487   492    1
   408   488   489    1
   409   488   490    1
   410   488   491    1
   411   493   494    1
   412   493   498    1
   413   494   495    1
   414   494   496    1
   415   494   497    1
   416   499   500    1
   417   499   504    1
   418   500   501    1
   419   500   502    1
   420   500   503    1
   421   505   506    1
   422   505   510    1
   423   506   507    1
   424   506   508    1
   425   506   509    1
   426   511   512    1
   427   511   516    1
   428   512   513    1
   429   512   514    1
   430   512   515    1
   431   517   518    1
   432   517   522    1
   433   518   519    1
   434   518   520    1
   435   518   521    1
   436   523   524    1
   437   523   528    1
   438   524   525    1
   439   524   526    1
   440   524   527    1
   441   529   530    1
   442   529   534    1
   443   530   531    1
   444   530   532    1
   445   530   533    1
   446   535   536    1
   447   535   540    1
   448   536   537    1
   449   536   538    1
   450   536   539    1
   451   541   542    1
   452   541   546    1
   453   542   543    1
   454   542   544    1
   455   542   545    1
   456   547   548    1
   457   547   552    1
   458   548   549    1
   459   548   550    1
   460   548   551    1
   461   553   554    1
   462   553   558    1
   463   554   555    1
   464   554   556    1
   465   554   557    1
   466   559   560    1
   467   559   564    1
   468   560   561    1
   469   560   562    1
   470   560   563    1
   471   565   566    1
   472   565   570    1
   473   566   567    1
   474   566   568    1
   475   566   569    1
   476   571   572    1
   477   571   576    1
   478   572   573    1
   479   572   574    1
   480   572   575    1
   481   577   578    1
   482   577   582    1
   483   578   579    1
   484   578   580    1
   485   578   581    1
   486   583   584    1
   487   583   588    1
   488   584   585    1
   489   584   586    1
   490   584   587    1
   491   589   590    1
   492   589   594    1
   493   590   591    1
   494   590   592    1
   495   590   593    1
   496   595   596    1
   497   595   600    1
   498   596   597    1
   499   596   598    1
   500   596   599    1
   501   601   602    1
   502   601   606    1
   503   602   603    1
   504   602   604    1
   505   602   605    1
   506   607   608    1
   507   607   612    1
   508   608   609    1
   509   608   610    1
   510   608   611    1
   511   613   614    1
   512   613   618    1
   513   614   615    1
   514   614   616    1
   515   614   617    1
   516   619   620    1
   517   619   624    1
   518   620   621    1
   519   620   622    1
   520   620   623    1
   521   625   626    1
   522   625   630    1
   523   626   627    1
   524   626   628    1
   525   626   629    1
   526   631   632    1
   527   631   636    1
   528   632   633    1
   529   632   634    1
   530   632   635    1
   531   637   638    1
   532   637   642    1
   533   638   639    1
   534   638   640    1
   535   638   641    1
   536   643   644    1
   537   643   648    1
   538   644   645    1
   539   644   646    1
   540   644   647    1
   541   649   650    1
   542   649   654    1
   543   650   651    1
   544   650   652    1
   545   650   653    1
   546   655   656    1
   547   655   660    1
   548   656   657    1
   549   656   658    1
   550   656   659    1
   551   661   662    1
   552   661   666    1
   553   662   663    1
   554   662   664    1
   555   662   665    1
   556   667   668    1
   557   667   672    1
   558   668   669    1
   559   668   670    1
   560   668   671    1
   561   673   674    1
   562   673   678    1
   563   674   675    1
   564   674   676    1
   565   674   677    1
   566   679   680    1
   567   679   684    1
   568   680   681    1
   569   680   682    1
   570   680   683    1
   571   685   686    1
   572   685   690    1
   573   686   687    1
   574   686   688    1
   575   686   689    1
   576   691   692    1
   577   691   696    1
   578   692   693    1
   579   692   694    1
   580   692   695    1
   581   697   698    1
   582   697   702    1
   583   698   699    1
   584   698   700    1
   585   698   701    1
   586   703   704    1
   587   703   708    1
   588   704   705    1
   589   704   706    1
   590   704   707    1
   591   709   710    1
   592   709   714    1
   593   710   711    1
   594   710   712    1
   595   710   713    1
   596   715   716    1
   597   715   720    1
   598   716   717    1
   599   716   718    1
   600   716   719    1
   601   721   722    1
   602   721   726    1
   603   722   723    1
   604   722   724    1
   605   722   725    1
   606   727   728    1
   607   727   732    1
   608   728   729    1
   609   728   730    1
   610   728   731    1
   611   733   734    1
   612   733   738    1
   613   734   735    1
   614   734   736    1
   615   734   737    1
   616   739   740    1
   617   739   744    1
   618   740   741    1
   619   740   742    1
   620   740   743    1
   621   745   746    1
   622   745   750    1
   623   746   747    1
   624   746   748    1
   625   746   749    1
   626   751   752    1
   627   751   756    1
   628   752   753    1
   629   752   754    1
   630   752   755    1
   631   757   758    1
   632   757   762    1
   633   758   759    1
   634   758   760    1
   635   758   761    1
   636   763   764    1
   637   763   768    1
   638   764   765    1
   639   764   766    1
   640   764   767    1
   641   769   770    1
   642   769   774    1
   643   770   771    1
   644   770   772    1
   645   770   773    1
   646   775   776    1
   647   775   780    1
   648   776   777    1
   649   776   778    1
   650   776   779    1
   651   781   782    1
   652   781   786    1
   653   782   783    1
   654   782   784    1
   655   782   785    1
   656   787   788    1
   657   787   792    1
   658   788   789    1
   659   788   790    1
   660   788   791    1
   661   793   794    1
   662   793   798    1
   663   794   795    1
   664   794   796    1
   665   794   797    1
   666   799   800    1
   667   799   804    1
   668   800   801    1
   669   800   802    1
   670   800   803    1
   671   805   806    1
   672   805   810    1
   673   806   807    1
   674   806   808    1
   675   806   809    1
   676   811   812    1
   677   811   816    1
   678   812   813    1
   679   812   814    1
   680   812   815    1
   681   817   818    1
   682   817   822    1
   683   818   819    1
   684   818   820    1
   685   818   821    1
   686   823   824    1
   687   823   828    1
   688   824   825    1
   689   824   826    1
   690   824   827    1
   691   829   830    1
   692   829   834    1
   693   830   831    1
   694   830   832    1
   695   830   833    1
   696   835   836    1
   697   835   840    1
   698   836   837    1
   699   836   838    1
   700   836   839    1
   701   841   842    1
   702   841   846    1
   703   842   843    1
   704   842   844    1
   705   842   845    1
   706   847   848    1
   707   847   852    1
   708   848   849    1
   709   848   850    1
   710   848   851    1
   711   853   854    1
   712   853   858    1
   713   854   855    1
   714   854   856    1
   715   854   857    1
   716   859   860    1
   717   859   864    1
   718   860   861    1
   719   860   862    1
   720   860   863    1
   721   865   866    1
   722   865   870    1
   723   866   867    1
   724   866   868    1
   725   866   869    1
