@<TRIPOS>MOLECULE
*****
 1770 1475 0 0 0
SMALL
GASTEIGER

@<TRIPOS>ATOM
      1 O          -0.7405    0.4048    4.0022 O.3     1  UNL1       -0.3982
      2 C          -0.3098   -0.3108    2.8591 C.3     1  UNL1        0.0330
      3 H          -0.9226   -0.0289    1.9993 H       1  UNL1        0.0521
      4 H          -0.3968   -1.3840    3.0458 H       1  UNL1        0.0521
      5 H           0.7346   -0.0619    2.6567 H       1  UNL1        0.0521
      6 H          -1.6698    0.1637    4.1569 H       1  UNL1        0.2090
      7 O           0.5608   -0.6002   19.3103 O.3     2  UNL2       -0.3982
      8 C          -0.6850   -0.2872   18.7150 C.3     2  UNL2        0.0330
      9 H          -1.2317   -1.2099   18.5051 H       2  UNL2        0.0521
     10 H          -0.5181    0.2686   17.7892 H       2  UNL2        0.0521
     11 H          -1.2649    0.3279   19.4071 H       2  UNL2        0.0521
     12 H           1.0527   -1.1460   18.6733 H       2  UNL2        0.2090
     13 O          -1.1319    3.0011    8.2440 O.3     3  UNL3       -0.3982
     14 C          -0.4975    3.5683    9.3756 C.3     3  UNL3        0.0330
     15 H          -1.1895    4.2469    9.8805 H       3  UNL3        0.0521
     16 H           0.3964    4.1113    9.0592 H       3  UNL3        0.0521
     17 H          -0.2110    2.7672   10.0610 H       3  UNL3        0.0521
     18 H          -1.3744    3.7354    7.6545 H       3  UNL3        0.2090
     19 O           0.2764    1.7900   12.2923 O.3     4  UNL4       -0.3982
     20 C          -1.1394    1.7900   12.2923 C.3     4  UNL4        0.0330
     21 H          -1.5047    1.7013   11.2662 H       4  UNL4        0.0521
     22 H          -1.5046    2.7167   12.7416 H       4  UNL4        0.0521
     23 H          -1.4947    0.9390   12.8781 H       4  UNL4        0.0521
     24 H           0.5621    2.5556   11.7653 H       4  UNL4        0.2090
     25 O           0.5420    2.4175   15.2235 O.3     5  UNL5       -0.3982
     26 C          -0.8738    2.4175   15.2235 C.3     5  UNL5        0.0330
     27 H          -1.2391    3.3883   14.8794 H       5  UNL5        0.0521
     28 H          -1.2390    2.2160   16.2335 H       5  UNL5        0.0521
     29 H          -1.2291    1.6364   14.5474 H       5  UNL5        0.0521
     30 H           0.8277    3.1202   15.8319 H       5  UNL5        0.2090
     31 O          -0.4241    5.3424    2.1710 O.3     6  UNL6       -0.3982
     32 C          -1.2153    6.4943    2.3982 C.3     6  UNL6        0.0330
     33 H          -1.3270    7.0508    1.4643 H       6  UNL6        0.0521
     34 H          -0.7376    7.1223    3.1541 H       6  UNL6        0.0521
     35 H          -2.2003    6.1841    2.7550 H       6  UNL6        0.0521
     36 H           0.4431    5.6492    1.8555 H       6  UNL6        0.2090
     37 O          -1.4246    9.9549    8.3068 O.3     7  UNL7       -0.3982
     38 C          -0.5090    9.2546    9.1288 C.3     7  UNL7        0.0330
     39 H           0.0014    9.9594    9.7898 H       7  UNL7        0.0521
     40 H           0.2190    8.7331    8.5026 H       7  UNL7        0.0521
     41 H          -1.0572    8.5257    9.7304 H       7  UNL7        0.0521
     42 H          -0.9095   10.5938    7.7852 H       7  UNL7        0.2090
     43 O          -1.4883    8.5947   16.0970 O.3     8  UNL8       -0.3982
     44 C          -0.3141    9.1054   15.4930 C.3     8  UNL8        0.0330
     45 H          -0.4790    9.2276   14.4196 H       8  UNL8        0.0521
     46 H           0.5161    8.4170   15.6688 H       8  UNL8        0.0521
     47 H          -0.0797   10.0760   15.9363 H       8  UNL8        0.0521
     48 H          -1.6709    7.7337   15.6838 H       8  UNL8        0.2090
     49 O          -0.4463   12.1872    5.8875 O.3     9  UNL9       -0.3982
     50 C          -1.8621   12.1872    5.8875 C.3     9  UNL9        0.0330
     51 H          -2.2274   11.3853    5.2411 H       9  UNL9        0.0521
     52 H          -2.2273   13.1529    5.5298 H       9  UNL9        0.0521
     53 H          -2.2174   12.0208    6.9071 H       9  UNL9        0.0521
     54 H          -0.1606   12.3370    4.9702 H       9  UNL9        0.2090
     55 O          -0.1257   13.7310   10.1399 O.3    10  UNL10      -0.3982
     56 C          -0.3576   13.7310    8.7432 C.3    10  UNL10       0.0330
     57 H          -1.0933   12.9620    8.4951 H      10  UNL10       0.0521
     58 H           0.5803   13.5363    8.2173 H      10  UNL10       0.0521
     59 H          -0.7425   14.7096    8.4470 H      10  UNL10       0.0521
     60 H           0.2151   12.8506   10.3729 H      10  UNL10       0.2090
     61 O           0.6866   12.1175   18.5267 O.3    11  UNL11      -0.3982
     62 C          -0.7292   12.1175   18.5267 C.3    11  UNL11       0.0330
     63 H          -1.0946   12.0288   17.5006 H      11  UNL11       0.0521
     64 H          -1.0944   13.0443   18.9760 H      11  UNL11       0.0521
     65 H          -1.0845   11.2665   19.1125 H      11  UNL11       0.0521
     66 H           0.9722   12.8832   17.9997 H      11  UNL11       0.2090
     67 O           3.1892    0.2628    2.6201 O.3    12  UNL12      -0.3982
     68 C           3.8048   -0.9946    2.8305 C.3    12  UNL12       0.0330
     69 H           3.0389   -1.7463    3.0370 H      12  UNL12       0.0521
     70 H           4.4987   -0.9253    3.6718 H      12  UNL12       0.0521
     71 H           4.3549   -1.2761    1.9296 H      12  UNL12       0.0521
     72 H           2.7090    0.4859    3.4357 H      12  UNL12       0.2090
     73 O           1.5661   -0.6620    7.9950 O.3    13  UNL13      -0.3982
     74 C           1.7856   -0.5870    9.3917 C.3    13  UNL13       0.0330
     75 H           0.9540   -0.0584    9.8643 H      13  UNL13       0.0521
     76 H           2.7234   -0.0610    9.5863 H      13  UNL13       0.0521
     77 H           1.8477   -1.5999    9.7965 H      13  UNL13       0.0521
     78 H           1.5155    0.2511    7.6644 H      13  UNL13       0.2090
     79 O           2.1647   -0.6328   15.3251 O.3    14  UNL14      -0.3982
     80 C           0.7489   -0.6328   15.3251 C.3    14  UNL14       0.0330
     81 H           0.3836   -1.4018   16.0103 H      14  UNL14       0.0521
     82 H           0.3837   -0.8275   14.3138 H      14  UNL14       0.0521
     83 H           0.3936    0.3458   15.6563 H      14  UNL14       0.0521
     84 H           2.4504   -1.5132   15.0271 H      14  UNL14       0.2090
     85 O          -0.0021    1.7198   -0.7353 O.3    15  UNL15      -0.3982
     86 C           1.3378    1.7198   -0.2777 C.3    15  UNL15       0.0330
     87 H           1.9049    0.9508   -0.8081 H      15  UNL15       0.0521
     88 H           1.3565    1.5251    0.7973 H      15  UNL15       0.0521
     89 H           1.7810    2.6984   -0.4763 H      15  UNL15       0.0521
     90 H          -0.3687    0.8394   -0.5456 H      15  UNL15       0.2090
     91 O           2.6335    3.2393    2.8776 O.3    16  UNL16      -0.3982
     92 C           1.2177    3.2393    2.8776 C.3    16  UNL16       0.0330
     93 H           0.8524    4.2485    3.0836 H      16  UNL16       0.0521
     94 H           0.8525    2.5456    3.6388 H      16  UNL16       0.0521
     95 H           0.8624    2.9190    1.8953 H      16  UNL16       0.0521
     96 H           2.9192    3.5275    3.7612 H      16  UNL16       0.2090
     97 O           0.9701    3.3454    7.1941 O.3    17  UNL17      -0.3982
     98 C           0.9523    2.2412    6.3081 C.3    17  UNL17       0.0330
     99 H           1.8143    1.5995    6.5068 H      17  UNL17       0.0521
    100 H           0.9820    2.6003    5.2765 H      17  UNL17       0.0521
    101 H           0.0331    1.6727    6.4674 H      17  UNL17       0.0521
    102 H           1.7966    3.8304    7.0296 H      17  UNL17       0.2090
    103 O           3.8111    1.6073    8.6892 O.3    18  UNL18      -0.3982
    104 C           3.0612    2.7470    9.0677 C.3    18  UNL18       0.0330
    105 H           2.0802    2.4337    9.4336 H      18  UNL18       0.0521
    106 H           2.9461    3.4107    8.2074 H      18  UNL18       0.0521
    107 H           3.5930    3.2741    9.8632 H      18  UNL18       0.0521
    108 H           3.3147    1.1604    7.9825 H      18  UNL18       0.2090
    109 O           4.2311    2.8432   12.0957 O.3    19  UNL19      -0.3982
    110 C           2.8153    2.8432   12.0957 C.3    19  UNL19       0.0330
    111 H           2.4500    1.8192   11.9854 H      19  UNL19       0.0521
    112 H           2.4501    3.4624   11.2727 H      19  UNL19       0.0521
    113 H           2.4600    3.2544   13.0435 H      19  UNL19       0.0521
    114 H           4.5168    2.4734   11.2430 H      19  UNL19       0.2090
    115 O           4.2000    2.3110   14.5253 O.3    20  UNL20      -0.3982
    116 C           3.4087    2.6241   15.6569 C.3    20  UNL20       0.0330
    117 H           3.1121    1.7014   16.1618 H      20  UNL20       0.0521
    118 H           2.5227    3.1799   15.3405 H      20  UNL20       0.0521
    119 H           3.9965    3.2391   16.3423 H      20  UNL20       0.0521
    120 H           3.6522    1.7652   13.9358 H      20  UNL20       0.2090
    121 O           2.4616    2.2979   18.3229 O.3    21  UNL21      -0.3982
    122 C           1.0458    2.2979   18.3229 C.3    21  UNL21       0.0330
    123 H           0.6805    3.3071   18.5290 H      21  UNL21       0.0521
    124 H           0.6806    1.6042   19.0842 H      21  UNL21       0.0521
    125 H           0.6905    1.9776   17.3407 H      21  UNL21       0.0521
    126 H           2.7473    2.5860   19.2066 H      21  UNL21       0.2090
    127 O           2.0944    5.2952   -0.5890 O.3    22  UNL22      -0.3982
    128 C           0.6786    5.2952   -0.5890 C.3    22  UNL22       0.0330
    129 H           0.3133    4.5262    0.0962 H      22  UNL22       0.0521
    130 H           0.3134    5.1005   -1.6003 H      22  UNL22       0.0521
    131 H           0.3233    6.2738   -0.2578 H      22  UNL22       0.0521
    132 H           2.3801    4.4148   -0.8870 H      22  UNL22       0.2090
    133 O           3.2416    5.7018    2.4132 O.3    23  UNL23      -0.3982
    134 C           2.4503    6.8537    2.6404 C.3    23  UNL23       0.0330
    135 H           2.3386    7.4101    1.7065 H      23  UNL23       0.0521
    136 H           2.9281    7.4817    3.3963 H      23  UNL23       0.0521
    137 H           1.4654    6.5434    2.9972 H      23  UNL23       0.0521
    138 H           4.1087    6.0085    2.0977 H      23  UNL23       0.2090
    139 O           1.8483    6.1584    5.5751 O.3    24  UNL24      -0.3982
    140 C           0.4325    6.1584    5.5751 C.3    24  UNL24       0.0330
    141 H           0.0672    5.3894    6.2603 H      24  UNL24       0.0521
    142 H           0.0673    5.9637    4.5638 H      24  UNL24       0.0521
    143 H           0.0772    7.1370    5.9063 H      24  UNL24       0.0521
    144 H           2.1340    5.2780    5.2771 H      24  UNL24       0.2090
    145 O           1.0755    6.3067    8.6129 O.3    25  UNL25      -0.3982
    146 C           2.4154    5.9447    8.8927 C.3    25  UNL25       0.0330
    147 H           2.4349    5.2218    9.7121 H      25  UNL25       0.0521
    148 H           2.9852    6.8363    9.1656 H      25  UNL25       0.0521
    149 H           2.8551    5.4929    8.0005 H      25  UNL25       0.0521
    150 H           0.7121    6.7046    9.4223 H      25  UNL25       0.2090
    151 O           1.8171    5.9202   12.0907 O.3    26  UNL26      -0.3982
    152 C           0.4013    5.9202   12.0907 C.3    26  UNL26       0.0330
    153 H           0.0360    5.1512   12.7759 H      26  UNL26       0.0521
    154 H           0.0361    5.7255   11.0794 H      26  UNL26       0.0521
    155 H           0.0460    6.8988   12.4219 H      26  UNL26       0.0521
    156 H           2.1028    5.0398   11.7927 H      26  UNL26       0.2090
    157 O           2.9186    6.0586   15.2631 O.3    27  UNL27      -0.3982
    158 C           1.5028    6.0586   15.2631 C.3    27  UNL27       0.0330
    159 H           1.1375    6.6086   16.1339 H      27  UNL27       0.0521
    160 H           1.1376    5.0291   15.2895 H      27  UNL27       0.0521
    161 H           1.1475    6.5457   14.3520 H      27  UNL27       0.0521
    162 H           3.2043    5.6205   16.0828 H      27  UNL27       0.2090
    163 O           2.1257    5.7131   18.6923 O.3    28  UNL28      -0.3982
    164 C           0.7099    5.7131   18.6923 C.3    28  UNL28       0.0330
    165 H           0.3446    4.9441   19.3775 H      28  UNL28       0.0521
    166 H           0.3447    5.5184   17.6810 H      28  UNL28       0.0521
    167 H           0.3546    6.6917   19.0235 H      28  UNL28       0.0521
    168 H           2.4114    4.8327   18.3943 H      28  UNL28       0.2090
    169 O           2.6413    8.3467   -0.8054 O.3    29  UNL29      -0.3982
    170 C           1.2255    8.3467   -0.8054 C.3    29  UNL29       0.0330
    171 H           0.8602    9.3521   -1.0292 H      29  UNL29       0.0521
    172 H           0.8603    8.0241    0.1726 H      29  UNL29       0.0521
    173 H           0.8702    7.6534   -1.5714 H      29  UNL29       0.0521
    174 H           2.9270    8.9704   -0.1163 H      29  UNL29       0.2090
    175 O           0.7500    9.2103    1.8930 O.3    30  UNL30      -0.3982
    176 C           0.5181    9.2103    3.2897 C.3    30  UNL30       0.0330
    177 H           0.6615   10.2194    3.6838 H      30  UNL30       0.0521
    178 H           1.2092    8.5166    3.7746 H      30  UNL30       0.0521
    179 H          -0.5090    8.8900    3.4793 H      30  UNL30       0.0521
    180 H           1.6686    9.4984    1.7559 H      30  UNL30       0.2090
    181 O           2.6491    9.8736    6.0164 O.3    31  UNL31      -0.3982
    182 C           1.2333    9.8736    6.0164 C.3    31  UNL31       0.0330
    183 H           0.8680    9.0717    5.3700 H      31  UNL31       0.0521
    184 H           0.8681   10.8393    5.6587 H      31  UNL31       0.0521
    185 H           0.8780    9.7072    7.0360 H      31  UNL31       0.0521
    186 H           2.9348   10.0233    5.0991 H      31  UNL31       0.2090
    187 O           3.6752    8.7573    9.6776 O.3    32  UNL32      -0.3982
    188 C           2.8839    9.2671    8.6200 C.3    32  UNL32       0.0330
    189 H           2.7722    8.5033    7.8464 H      32  UNL32       0.0521
    190 H           3.3617   10.1567    8.2024 H      32  UNL32       0.0521
    191 H           1.8990    9.5343    9.0100 H      32  UNL32       0.0521
    192 H           4.5423    8.5292    9.3013 H      32  UNL32       0.2090
    193 O           1.1113    8.6444   12.9654 O.3    33  UNL33      -0.3982
    194 C           1.3308    8.7194   11.5687 C.3    33  UNL33       0.0330
    195 H           2.3781    8.4959   11.3510 H      33  UNL33       0.0521
    196 H           1.0793    9.7214   11.2128 H      33  UNL33       0.0521
    197 H           0.6927    7.9868   11.0690 H      33  UNL33       0.0521
    198 H           1.6906    9.3053   13.3815 H      33  UNL33       0.2090
    199 O           3.6961    8.9109   14.6738 O.3    34  UNL34      -0.3982
    200 C           2.9048    9.2239   15.8053 C.3    34  UNL34       0.0330
    201 H           2.6082    8.3012   16.3102 H      34  UNL34       0.0521
    202 H           2.0188    9.7798   15.4889 H      34  UNL34       0.0521
    203 H           3.4926    9.8390   16.4907 H      34  UNL34       0.0521
    204 H           3.1483    8.3651   14.0842 H      34  UNL34       0.2090
    205 O           2.8093    9.1830   18.6845 O.3    35  UNL35      -0.3982
    206 C           1.3935    9.1830   18.6845 C.3    35  UNL35       0.0330
    207 H           1.0282    8.4140   19.3697 H      35  UNL35       0.0521
    208 H           1.0283    8.9883   17.6732 H      35  UNL35       0.0521
    209 H           1.0382   10.1616   19.0157 H      35  UNL35       0.0521
    210 H           3.0950    8.3026   18.3865 H      35  UNL35       0.2090
    211 O           2.4733   11.6958   -0.2609 O.3    36  UNL36      -0.3982
    212 C           1.0575   11.6958   -0.2609 C.3    36  UNL36       0.0330
    213 H           0.6922   10.9268    0.4243 H      36  UNL36       0.0521
    214 H           0.6923   11.5011   -1.2722 H      36  UNL36       0.0521
    215 H           0.7022   12.6744    0.0703 H      36  UNL36       0.0521
    216 H           2.7590   10.8154   -0.5589 H      36  UNL36       0.2090
    217 O           1.3106   12.2208    2.4440 O.3    37  UNL37      -0.3982
    218 C           2.6505   12.6783    2.4440 C.3    37  UNL37       0.0330
    219 H           3.3223   11.8414    2.6500 H      37  UNL37       0.0521
    220 H           2.7719   13.4528    3.2052 H      37  UNL37       0.0521
    221 H           2.8832   13.0963    1.4618 H      37  UNL37       0.0521
    222 H           1.1334   11.8558    3.3276 H      37  UNL37       0.2090
    223 O           3.9186   12.6138    5.9423 O.3    38  UNL38      -0.3982
    224 C           2.5028   12.6138    5.9423 C.3    38  UNL38       0.0330
    225 H           2.1375   11.8448    6.6275 H      38  UNL38       0.0521
    226 H           2.1376   12.4191    4.9310 H      38  UNL38       0.0521
    227 H           2.1475   13.5924    6.2735 H      38  UNL38       0.0521
    228 H           4.2043   11.7334    5.6443 H      38  UNL38       0.2090
    229 O           3.7702   12.4185    9.2274 O.3    39  UNL39      -0.3982
    230 C           2.3544   12.4185    9.2274 C.3    39  UNL39       0.0330
    231 H           1.9891   11.6495    9.9126 H      39  UNL39       0.0521
    232 H           1.9892   12.2238    8.2161 H      39  UNL39       0.0521
    233 H           1.9991   13.3971    9.5586 H      39  UNL39       0.0521
    234 H           4.0559   11.5381    8.9294 H      39  UNL39       0.2090
    235 O           1.0813   11.3213   12.5819 O.3    40  UNL40      -0.3982
    236 C           1.7460   12.5691   12.5069 C.3    40  UNL40       0.0330
    237 H           2.6365   12.5472   13.1400 H      40  UNL40       0.0521
    238 H           1.0711   13.3628   12.8364 H      40  UNL40       0.0521
    239 H           2.0422   12.7522   11.4714 H      40  UNL40       0.0521
    240 H           0.8307   11.1865   13.5117 H      40  UNL40       0.2090
    241 O           2.5866   12.6763   15.6142 O.3    41  UNL41      -0.3982
    242 C           1.1708   12.6763   15.6142 C.3    41  UNL41       0.0330
    243 H           0.8055   11.9073   16.2994 H      41  UNL41       0.0521
    244 H           0.8056   12.4816   14.6029 H      41  UNL41       0.0521
    245 H           0.8155   13.6549   15.9454 H      41  UNL41       0.0521
    246 H           2.8723   11.7959   15.3162 H      41  UNL41       0.2090
    247 O           4.0281   14.4295   18.8903 O.3    42  UNL42      -0.3982
    248 C           3.2368   13.2659   18.7336 C.3    42  UNL42       0.0330
    249 H           2.9402   13.1642   17.6868 H      42  UNL42       0.0521
    250 H           2.3509   13.3385   19.3691 H      42  UNL42       0.0521
    251 H           3.8246   12.3940   19.0299 H      42  UNL42       0.0521
    252 H           3.4803   15.1861   18.6200 H      42  UNL42       0.2090
    253 O           6.3265   -0.6897   -0.6471 O.3    43  UNL43      -0.3982
    254 C           4.9107   -0.6897   -0.6471 C.3    43  UNL43       0.0330
    255 H           4.5454   -0.1397    0.2237 H      43  UNL43       0.0521
    256 H           4.5455   -1.7192   -0.6207 H      43  UNL43       0.0521
    257 H           4.5554   -0.2026   -1.5583 H      43  UNL43       0.0521
    258 H           6.6122   -1.1279    0.1726 H      43  UNL43       0.2090
    259 O           7.2832   -0.0463    3.8536 O.3    44  UNL44      -0.3982
    260 C           7.0087   -0.2516    2.4799 C.3    44  UNL44       0.0330
    261 H           7.4468    0.5606    1.8944 H      44  UNL44       0.0521
    262 H           5.9276   -0.2850    2.3245 H      44  UNL44       0.0521
    263 H           7.4489   -1.2014    2.1676 H      44  UNL44       0.0521
    264 H           6.8805    0.8034    4.1015 H      44  UNL44       0.2090
    265 O           4.5499   -1.1992    8.7704 O.3    45  UNL45      -0.3982
    266 C           5.8897   -0.7417    8.7704 C.3    45  UNL45       0.0330
    267 H           5.9869    0.1041    9.4556 H      45  UNL45       0.0521
    268 H           6.1724   -0.4394    7.7591 H      45  UNL45       0.0521
    269 H           6.5422   -1.5529    9.1016 H      45  UNL45       0.0521
    270 H           3.9950   -0.4584    8.4724 H      45  UNL45       0.2090
    271 O           6.0843   -0.6602   11.9853 O.3    46  UNL46      -0.3982
    272 C           4.6685   -0.6602   11.9853 C.3    46  UNL46       0.0330
    273 H           4.3032   -1.4292   12.6705 H      46  UNL46       0.0521
    274 H           4.3033   -0.8549   10.9740 H      46  UNL46       0.0521
    275 H           4.3132    0.3184   12.3165 H      46  UNL46       0.0521
    276 H           6.3700   -1.5406   11.6873 H      46  UNL46       0.2090
    277 O           6.3890   -0.8236   15.1522 O.3    47  UNL47      -0.3982
    278 C           4.9732   -0.8236   15.1522 C.3    47  UNL47       0.0330
    279 H           4.6079    0.1256   14.7523 H      47  UNL47       0.0521
    280 H           4.6080   -0.9662   16.1722 H      47  UNL47       0.0521
    281 H           4.6179   -1.6426   14.5225 H      47  UNL47       0.0521
    282 H           6.6747   -0.0867   15.7188 H      47  UNL47       0.2090
    283 O           7.9625   -0.6315   19.1189 O.3    48  UNL48      -0.3982
    284 C           6.7166   -0.3184   18.5236 C.3    48  UNL48       0.0330
    285 H           6.1700   -1.2412   18.3137 H      48  UNL48       0.0521
    286 H           6.8836    0.2374   17.5978 H      48  UNL48       0.0521
    287 H           6.1367    0.2966   19.2157 H      48  UNL48       0.0521
    288 H           8.4543   -1.1773   18.4819 H      48  UNL48       0.2090
    289 O           5.4945    2.3499   -0.4056 O.3    49  UNL49      -0.3982
    290 C           4.0787    2.3499   -0.4056 C.3    49  UNL49       0.0330
    291 H           3.7134    2.7353    0.5496 H      49  UNL49       0.0521
    292 H           3.7135    1.3323   -0.5636 H      49  UNL49       0.0521
    293 H           3.7234    2.9920   -1.2149 H      49  UNL49       0.0521
    294 H           5.7802    1.7722    0.3226 H      49  UNL49       0.2090
    295 O           6.6741    2.5870    2.8776 O.3    50  UNL50      -0.3982
    296 C           5.2583    2.5870    2.8776 C.3    50  UNL50       0.0330
    297 H           4.8930    3.5961    3.0836 H      50  UNL50       0.0521
    298 H           4.8931    1.8933    3.6388 H      50  UNL50       0.0521
    299 H           4.9030    2.2667    1.8953 H      50  UNL50       0.0521
    300 H           6.9598    2.8751    3.7612 H      50  UNL50       0.2090
    301 O           4.7936    1.5196    6.0148 O.3    51  UNL51      -0.3982
    302 C           4.5617    2.9163    6.0148 C.3    51  UNL51       0.0330
    303 H           4.8351    3.3320    5.0418 H      51  UNL51       0.0521
    304 H           5.1556    3.3851    6.8032 H      51  UNL51       0.0521
    305 H           3.5013    3.1004    6.2024 H      51  UNL51       0.0521
    306 H           5.7421    1.3875    5.8462 H      51  UNL51       0.2090
    307 O           5.9522    2.4386    9.0428 O.3    52  UNL52      -0.3982
    308 C           7.2483    3.0058    9.0974 C.3    52  UNL52       0.0330
    309 H           7.3144    3.6844    9.9515 H      52  UNL52       0.0521
    310 H           7.4487    3.5488    8.1706 H      52  UNL52       0.0521
    311 H           7.9821    2.2047    9.2137 H      52  UNL52       0.0521
    312 H           5.3232    3.1729    8.9395 H      52  UNL52       0.2090
    313 O           8.0257    1.9511   11.9721 O.3    53  UNL53      -0.3982
    314 C           6.6099    1.9511   11.9721 C.3    53  UNL53       0.0330
    315 H           6.2446    1.2532   11.2146 H      53  UNL53       0.0521
    316 H           6.2447    2.9590   11.7606 H      53  UNL53       0.0521
    317 H           6.2546    1.6361   12.9561 H      53  UNL53       0.0521
    318 H           8.3114    2.2344   11.0869 H      53  UNL53       0.2090
    319 O           8.1273    2.6002   15.1772 O.3    54  UNL54      -0.3982
    320 C           6.7115    2.6002   15.1772 C.3    54  UNL54       0.0330
    321 H           6.3462    1.5848   15.0049 H      54  UNL54       0.0521
    322 H           6.3463    3.2683   14.3934 H      54  UNL54       0.0521
    323 H           6.3562    2.9530   16.1483 H      54  UNL54       0.0521
    324 H           8.4130    2.2829   14.3036 H      54  UNL54       0.2090
    325 O           6.5335    2.4204   18.5943 O.3    55  UNL55      -0.3982
    326 C           5.1177    2.4204   18.5943 C.3    55  UNL55       0.0330
    327 H           4.7524    2.1524   17.5998 H      55  UNL55       0.0521
    328 H           4.7525    3.4118   18.8734 H      55  UNL55       0.0521
    329 H           4.7624    1.6859   19.3208 H      55  UNL55       0.0521
    330 H           6.8192    3.0813   17.9408 H      55  UNL55       0.2090
    331 O           5.9827    5.3889   -0.1749 O.3    56  UNL56      -0.3982
    332 C           4.5669    5.3889   -0.1749 C.3    56  UNL56       0.0330
    333 H           4.2016    4.6199    0.5103 H      56  UNL56       0.0521
    334 H           4.2017    5.1942   -1.1862 H      56  UNL56       0.0521
    335 H           4.2116    6.3675    0.1563 H      56  UNL56       0.0521
    336 H           6.2684    4.5085   -0.4729 H      56  UNL56       0.2090
    337 O           6.0399    5.3522    3.1037 O.3    57  UNL57      -0.3982
    338 C           6.6737    6.4945    2.5579 C.3    57  UNL57       0.0330
    339 H           7.4447    6.1811    1.8496 H      57  UNL57       0.0521
    340 H           7.1208    7.0835    3.3624 H      57  UNL57       0.0521
    341 H           5.9280    7.0998    2.0373 H      57  UNL57       0.0521
    342 H           6.7260    4.8350    3.5591 H      57  UNL57       0.2090
    343 O           5.8070    5.6741    5.7860 O.3    58  UNL58      -0.3982
    344 C           4.3912    5.6741    5.7860 C.3    58  UNL58       0.0330
    345 H           4.0259    4.9051    6.4712 H      58  UNL58       0.0521
    346 H           4.0260    5.4794    4.7747 H      58  UNL58       0.0521
    347 H           4.0359    6.6527    6.1172 H      58  UNL58       0.0521
    348 H           6.0927    4.7937    5.4880 H      58  UNL58       0.2090
    349 O           5.1816    6.7052    8.6564 O.3    59  UNL59      -0.3982
    350 C           5.4352    5.3242    8.8380 C.3    59  UNL59       0.0330
    351 H           6.1272    5.1865    9.6725 H      59  UNL59       0.0521
    352 H           5.8637    4.9082    7.9229 H      59  UNL59       0.0521
    353 H           4.4938    4.8164    9.0605 H      59  UNL59       0.0521
    354 H           6.0346    7.1290    8.4605 H      59  UNL59       0.2090
    355 O           5.9437    5.9006   11.9618 O.3    60  UNL60      -0.3982
    356 C           4.5279    5.9006   11.9618 C.3    60  UNL60       0.0330
    357 H           4.1626    5.1316   12.6470 H      60  UNL60       0.0521
    358 H           4.1627    5.7059   10.9505 H      60  UNL60       0.0521
    359 H           4.1726    6.8792   12.2930 H      60  UNL60       0.0521
    360 H           6.2294    5.0202   11.6638 H      60  UNL60       0.2090
    361 O           6.9671    5.8360   14.9779 O.3    61  UNL61      -0.3982
    362 C           5.5513    5.8360   14.9779 C.3    61  UNL61       0.0330
    363 H           5.1860    6.3860   15.8488 H      61  UNL61       0.0521
    364 H           5.1861    4.8065   15.0044 H      61  UNL61       0.0521
    365 H           5.1960    6.3230   14.0668 H      61  UNL61       0.0521
    366 H           7.2528    5.3978   15.7976 H      61  UNL61       0.2090
    367 O           6.0921    5.6772   18.3915 O.3    62  UNL62      -0.3982
    368 C           4.6763    5.6772   18.3915 C.3    62  UNL62       0.0330
    369 H           4.3110    4.8753   17.7451 H      62  UNL62       0.0521
    370 H           4.3111    6.6429   18.0337 H      62  UNL62       0.0521
    371 H           4.3210    5.5107   19.4111 H      62  UNL62       0.0521
    372 H           6.3778    5.8269   17.4741 H      62  UNL62       0.2090
    373 O           5.3128    8.2810    0.3673 O.3    63  UNL63      -0.3982
    374 C           5.2748    8.5098   -1.0294 C.3    63  UNL63       0.0330
    375 H           6.2930    8.5158   -1.4264 H      63  UNL63       0.0521
    376 H           4.7887    9.4678   -1.2294 H      63  UNL63       0.0521
    377 H           4.7052    7.7082   -1.5054 H      63  UNL63       0.0521
    378 H           5.8244    9.0077    0.7620 H      63  UNL63       0.2090
    379 O           4.9927   10.4003    2.4584 O.3    64  UNL64      -0.3982
    380 C           4.2708    9.2590    2.8836 C.3    64  UNL64       0.0330
    381 H           4.2977    9.1952    3.9742 H      64  UNL64       0.0521
    382 H           4.7141    8.3620    2.4444 H      64  UNL64       0.0521
    383 H           3.2340    9.3503    2.5516 H      64  UNL64       0.0521
    384 H           5.9082   10.2907    2.7672 H      64  UNL64       0.2090
    385 O           5.4812    9.9880    6.0750 O.3    65  UNL65      -0.3982
    386 C           5.2493    8.5913    6.0750 C.3    65  UNL65       0.0330
    387 H           5.9805    8.0996    5.4286 H      65  UNL65       0.0521
    388 H           4.2367    8.3893    5.7173 H      65  UNL65       0.0521
    389 H           5.3552    8.2136    7.0946 H      65  UNL65       0.0521
    390 H           5.3802   10.2944    5.1577 H      65  UNL65       0.2090
    391 O           7.2588   10.9865    9.6438 O.3    66  UNL66      -0.3982
    392 C           6.4676   10.0913    8.8842 C.3    66  UNL66       0.0330
    393 H           6.3559    9.1503    9.4287 H      66  UNL66       0.0521
    394 H           6.9453    9.9111    7.9182 H      66  UNL66       0.0521
    395 H           5.4827   10.5360    8.7238 H      66  UNL66       0.0521
    396 H           8.1260   10.5650    9.7699 H      66  UNL66       0.2090
    397 O           4.0503    9.1615   12.2591 O.3    67  UNL67      -0.3982
    398 C           5.3901    9.3094   11.8261 C.3    67  UNL67       0.0330
    399 H           5.9573    9.8657   12.5765 H      67  UNL67       0.0521
    400 H           5.4089    9.8411   10.8716 H      67  UNL67       0.0521
    401 H           5.8334    8.3191   11.6978 H      67  UNL67       0.0521
    402 H           3.6836   10.0560   12.3641 H      67  UNL67       0.2090
    403 O           7.2071    8.1350   15.4892 O.3    68  UNL68      -0.3982
    404 C           6.6142    9.4160   15.3809 C.3    68  UNL68       0.0330
    405 H           6.4889    9.6726   14.3260 H      68  UNL68       0.0521
    406 H           7.2499   10.1556   15.8737 H      68  UNL68       0.0521
    407 H           5.6363    9.3972   15.8677 H      68  UNL68       0.0521
    408 H           8.0727    8.1826   15.0486 H      68  UNL68       0.2090
    409 O           5.0689    8.8548   19.5198 O.3    69  UNL69      -0.3982
    410 C           5.5193    8.9019   18.1783 C.3    69  UNL69       0.0330
    411 H           6.1276    9.7974   18.0285 H      69  UNL69       0.0521
    412 H           4.6591    8.9158   17.5046 H      69  UNL69       0.0521
    413 H           6.1241    8.0151   17.9752 H      69  UNL69       0.0521
    414 H           4.5356    9.6538   19.6703 H      69  UNL69       0.2090
    415 O           5.1665   12.2260    0.3625 O.3    70  UNL70      -0.3982
    416 C           5.1285   12.4548   -1.0341 C.3    70  UNL70       0.0330
    417 H           4.2494   13.0546   -1.2823 H      70  UNL70       0.0521
    418 H           5.0901   11.4977   -1.5601 H      70  UNL70       0.0521
    419 H           6.0308   12.9948   -1.3304 H      70  UNL70       0.0521
    420 H           4.3538   11.7456    0.5956 H      70  UNL70       0.2090
    421 O           5.6609   12.7300    2.7961 O.3    71  UNL71      -0.3982
    422 C           5.4290   14.1267    2.7961 C.3    71  UNL71       0.0330
    423 H           6.2810   14.6385    2.3418 H      71  UNL71       0.0521
    424 H           5.2871   14.4733    3.8226 H      71  UNL71       0.0521
    425 H           4.5281   14.3372    2.2150 H      71  UNL71       0.0521
    426 H           6.4658   12.5740    3.3189 H      71  UNL71       0.2090
    427 O           7.4746   14.1718    6.7697 O.3    72  UNL72      -0.3982
    428 C           7.2329   13.2036    5.7654 C.3    72  UNL72       0.0330
    429 H           7.0369   13.7048    4.8143 H      72  UNL72       0.0521
    430 H           6.3750   12.5892    6.0494 H      72  UNL72       0.0521
    431 H           8.1159   12.5681    5.6648 H      72  UNL72       0.0521
    432 H           6.6744   14.7203    6.8362 H      72  UNL72       0.2090
    433 O           7.6468   13.7427    9.2665 O.3    73  UNL73      -0.3982
    434 C           6.2310   13.7427    9.2665 C.3    73  UNL73       0.0330
    435 H           5.8657   12.9737    9.9517 H      73  UNL73       0.0521
    436 H           5.8658   13.5480    8.2552 H      73  UNL73       0.0521
    437 H           5.8757   14.7213    9.5977 H      73  UNL73       0.0521
    438 H           7.9325   12.8623    8.9685 H      73  UNL73       0.2090
    439 O           6.2210   12.3560   12.0907 O.3    74  UNL74      -0.3982
    440 C           4.8052   12.3560   12.0907 C.3    74  UNL74       0.0330
    441 H           4.4399   11.5870   12.7759 H      74  UNL74       0.0521
    442 H           4.4400   12.1613   11.0794 H      74  UNL74       0.0521
    443 H           4.4499   13.3346   12.4219 H      74  UNL74       0.0521
    444 H           6.5067   11.4756   11.7927 H      74  UNL74       0.2090
    445 O           4.7919   13.1529   15.1062 O.3    75  UNL75      -0.3982
    446 C           5.3044   11.8373   15.2114 C.3    75  UNL75       0.0330
    447 H           5.2022   11.4867   16.2414 H      75  UNL75       0.0521
    448 H           6.3563   11.8304   14.9156 H      75  UNL75       0.0521
    449 H           4.7372   11.1809   14.5474 H      75  UNL75       0.0521
    450 H           5.3145   13.7119   15.7061 H      75  UNL75       0.2090
    451 O           7.6312   12.2738   18.8666 O.3    76  UNL76      -0.3982
    452 C           6.2154   12.2738   18.8666 C.3    76  UNL76       0.0330
    453 H           5.8501   12.1851   17.8404 H      76  UNL76       0.0521
    454 H           5.8502   13.2005   19.3158 H      76  UNL76       0.0521
    455 H           5.8601   11.4228   19.4524 H      76  UNL76       0.0521
    456 H           7.9169   13.0394   18.3396 H      76  UNL76       0.2090
    457 O          10.4609   -0.7188    0.0477 O.3    77  UNL77      -0.3982
    458 C           9.0451   -0.7188    0.0477 C.3    77  UNL77       0.0330
    459 H           8.6798   -1.4878    0.7329 H      77  UNL77       0.0521
    460 H           8.6799   -0.9135   -0.9636 H      77  UNL77       0.0521
    461 H           8.6898    0.2598    0.3789 H      77  UNL77       0.0521
    462 H          10.7466   -1.5992   -0.2503 H      77  UNL77       0.2090
    463 O          10.1897    0.2945    2.2607 O.3    78  UNL78      -0.3982
    464 C          11.1321   -0.1500    3.2192 C.3    78  UNL78       0.0330
    465 H          10.9207   -1.1888    3.4848 H      78  UNL78       0.0521
    466 H          11.0755    0.4833    4.1080 H      78  UNL78       0.0521
    467 H          12.1344   -0.0827    2.7899 H      78  UNL78       0.0521
    468 H           9.3106    0.2233    2.6700 H      78  UNL78       0.2090
    469 O           8.7554    0.5134    8.2791 O.3    79  UNL79      -0.3982
    470 C           9.0029   -0.8752    8.4018 C.3    79  UNL79       0.0330
    471 H           8.5940   -1.3973    7.5332 H      79  UNL79       0.0521
    472 H           8.5384   -1.2495    9.3173 H      79  UNL79       0.0521
    473 H          10.0817   -1.0409    8.4492 H      79  UNL79       0.0521
    474 H           7.7907    0.6292    8.2395 H      79  UNL79       0.2090
    475 O           9.0744   -0.7628   16.2102 O.3    80  UNL80      -0.3982
    476 C           9.0364   -0.5340   14.8136 C.3    80  UNL80       0.0330
    477 H           8.1572    0.0658   14.5654 H      80  UNL80       0.0521
    478 H           8.9979   -1.4911   14.2877 H      80  UNL80       0.0521
    479 H           9.9387    0.0060   14.5173 H      80  UNL80       0.0521
    480 H           8.2617   -1.2432   16.4433 H      80  UNL80       0.2090
    481 O          11.5762   -1.2139   17.9608 O.3    81  UNL81      -0.3982
    482 C          10.8083   -0.4859   18.9014 C.3    81  UNL81       0.0330
    483 H          10.1967    0.2541   18.3792 H      81  UNL81       0.0521
    484 H          11.4747    0.0115   19.6103 H      81  UNL81       0.0521
    485 H          10.1575   -1.1781   19.4407 H      81  UNL81       0.0521
    486 H          12.1434   -0.5736   17.4983 H      81  UNL81       0.2090
    487 O           9.4414    2.3773   -0.6907 O.3    82  UNL82      -0.3982
    488 C           8.0256    2.3773   -0.6907 C.3    82  UNL82       0.0330
    489 H           7.6603    2.7627    0.2644 H      82  UNL82       0.0521
    490 H           7.6604    1.3596   -0.8488 H      82  UNL82       0.0521
    491 H           7.6703    3.0193   -1.5001 H      82  UNL82       0.0521
    492 H           9.7271    1.7996    0.0374 H      82  UNL82       0.2090
    493 O           9.3740    2.2591    3.2482 O.3    83  UNL83      -0.3982
    494 C           9.5935    3.6558    3.1733 C.3    83  UNL83       0.0330
    495 H           8.6414    4.1814    3.2807 H      83  UNL83       0.0521
    496 H          10.0516    3.9024    2.2124 H      83  UNL83       0.0521
    497 H          10.2650    3.9538    3.9818 H      83  UNL83       0.0521
    498 H           8.7751    2.0245    2.5189 H      83  UNL83       0.2090
    499 O           7.7078    2.3225    5.8856 O.3    84  UNL84      -0.3982
    500 C           9.0476    2.6845    6.1655 C.3    84  UNL84       0.0330
    501 H           9.1448    2.9344    7.2249 H      84  UNL84       0.0521
    502 H           9.3303    3.5422    5.5504 H      84  UNL84       0.0521
    503 H           9.7001    1.8401    5.9313 H      84  UNL84       0.0521
    504 H           7.1529    3.0908    6.1030 H      84  UNL84       0.2090
    505 O          11.2735    2.0923    8.2089 O.3    85  UNL85      -0.3982
    506 C          10.4822    2.4053    9.3404 C.3    85  UNL85       0.0330
    507 H          10.1856    1.4826    9.8453 H      85  UNL85       0.0521
    508 H           9.5963    2.9612    9.0241 H      85  UNL85       0.0521
    509 H          11.0700    3.0204   10.0259 H      85  UNL85       0.0521
    510 H          10.7257    1.5465    7.6194 H      85  UNL85       0.2090
    511 O          11.6601    2.8432   12.4941 O.3    86  UNL86      -0.3982
    512 C          10.2443    2.8432   12.4941 C.3    86  UNL86       0.0330
    513 H           9.8790    1.8192   12.3838 H      86  UNL86       0.0521
    514 H           9.8791    3.4624   11.6711 H      86  UNL86       0.0521
    515 H           9.8890    3.2544   13.4419 H      86  UNL86       0.0521
    516 H          11.9458    2.4734   11.6414 H      86  UNL86       0.2090
    517 O          11.9259    1.3228   14.4081 O.3    87  UNL87      -0.3982
    518 C          11.1346    1.6358   15.5397 C.3    87  UNL87       0.0330
    519 H          10.8380    0.7131   16.0446 H      87  UNL87       0.0521
    520 H          10.2486    2.1916   15.2233 H      87  UNL87       0.0521
    521 H          11.7224    2.2508   16.2251 H      87  UNL87       0.0521
    522 H          11.3781    0.7770   13.8186 H      87  UNL87       0.2090
    523 O           8.9603    1.7041   19.1868 O.3    88  UNL88      -0.3982
    524 C           9.5369    2.5584   18.2161 C.3    88  UNL88       0.0330
    525 H           9.9080    3.4646   18.7013 H      88  UNL88       0.0521
    526 H           8.7868    2.8159   17.4645 H      88  UNL88       0.0521
    527 H          10.3686    2.0388   17.7346 H      88  UNL88       0.0521
    528 H           8.2259    2.1920   19.5967 H      88  UNL88       0.2090
    529 O           9.8945    5.3538   -0.2921 O.3    89  UNL89      -0.3982
    530 C           8.4787    5.3538   -0.2921 C.3    89  UNL89       0.0330
    531 H           8.1134    4.5848    0.3931 H      89  UNL89       0.0521
    532 H           8.1135    5.1591   -1.3034 H      89  UNL89       0.0521
    533 H           8.1234    6.3324    0.0391 H      89  UNL89       0.0521
    534 H          10.1802    4.4734   -0.5901 H      89  UNL89       0.2090
    535 O          10.2984    7.3829    1.4543 O.3    90  UNL90      -0.3982
    536 C          10.1117    6.1872    2.1891 C.3    90  UNL90       0.0330
    537 H           9.1658    5.7235    1.8981 H      90  UNL90       0.0521
    538 H          10.1054    6.4128    3.2583 H      90  UNL90       0.0521
    539 H          10.9338    5.5024    1.9683 H      90  UNL90       0.0521
    540 H           9.5543    7.9703    1.6706 H      90  UNL90       0.2090
    541 O           9.7890    6.1194    5.5907 O.3    91  UNL91      -0.3982
    542 C           8.3732    6.1194    5.5907 C.3    91  UNL91       0.0330
    543 H           8.0079    5.3504    6.2759 H      91  UNL91       0.0521
    544 H           8.0080    5.9247    4.5794 H      91  UNL91       0.0521
    545 H           8.0179    7.0980    5.9219 H      91  UNL91       0.0521
    546 H          10.0747    5.2390    5.2927 H      91  UNL91       0.2090
    547 O           8.0631    5.7677    8.4097 O.3    92  UNL92      -0.3982
    548 C           9.4030    5.4057    8.6896 C.3    92  UNL92       0.0330
    549 H           9.4225    4.6828    9.5090 H      92  UNL92       0.0521
    550 H           9.9727    6.2972    8.9625 H      92  UNL92       0.0521
    551 H           9.8427    4.9538    7.7974 H      92  UNL92       0.0521
    552 H           7.6996    6.1655    9.2191 H      92  UNL92       0.2090
    553 O          10.0429    6.0178   11.9931 O.3    93  UNL93      -0.3982
    554 C           8.6271    6.0178   11.9931 C.3    93  UNL93       0.0330
    555 H           8.2618    5.2488   12.6783 H      93  UNL93       0.0521
    556 H           8.2619    5.8231   10.9818 H      93  UNL93       0.0521
    557 H           8.2718    6.9964   12.3243 H      93  UNL93       0.0521
    558 H          10.3286    5.1374   11.6951 H      93  UNL93       0.2090
    559 O           9.6432    4.7854   15.0361 O.3    94  UNL94      -0.3982
    560 C           9.8309    6.1010   15.5245 C.3    94  UNL94       0.0330
    561 H           8.9285    6.4293   16.0461 H      94  UNL94       0.0521
    562 H          10.0473    6.7728   14.6903 H      94  UNL94       0.0521
    563 H          10.6731    6.1049   16.2204 H      94  UNL94       0.0521
    564 H           8.8901    4.8135   14.4217 H      94  UNL94       0.2090
    565 O          10.0742    5.5107   18.3788 O.3    95  UNL95      -0.3982
    566 C           8.6584    5.5107   18.3788 C.3    95  UNL95       0.0330
    567 H           8.2931    6.4598   17.9789 H      95  UNL95       0.0521
    568 H           8.2932    5.3681   19.3988 H      95  UNL95       0.0521
    569 H           8.3031    4.6916   17.7491 H      95  UNL95       0.0521
    570 H          10.3599    6.2475   18.9454 H      95  UNL95       0.2090
    571 O           8.1434    9.6320   -0.9695 O.3    96  UNL96      -0.3982
    572 C           9.4832    9.1745   -0.9695 C.3    96  UNL96       0.0330
    573 H           9.5040    8.1050   -1.1932 H      96  UNL96       0.0521
    574 H           9.9331    9.3618    0.0085 H      96  UNL96       0.0521
    575 H          10.0435    9.7157   -1.7355 H      96  UNL96       0.0521
    576 H           7.6715    9.1342   -0.2803 H      96  UNL96       0.2090
    577 O           8.4023    9.9977    1.6455 O.3    97  UNL97      -0.3982
    578 C           8.2647    9.7178    3.0265 C.3    97  UNL97       0.0330
    579 H           7.7833   10.5632    3.5244 H      97  UNL97       0.0521
    580 H           9.2502    9.5375    3.4626 H      97  UNL97       0.0521
    581 H           7.6460    8.8256    3.1483 H      97  UNL97       0.0521
    582 H           8.9556   10.7937    1.5690 H      97  UNL97       0.2090
    583 O           9.4492    9.5267    6.0204 O.3    98  UNL98      -0.3982
    584 C           8.0334    9.5267    6.0204 C.3    98  UNL98       0.0330
    585 H           7.6681    8.7577    6.7056 H      98  UNL98       0.0521
    586 H           7.6682    9.3320    5.0091 H      98  UNL98       0.0521
    587 H           7.6781   10.5053    6.3516 H      98  UNL98       0.0521
    588 H           9.7349    8.6463    5.7224 H      98  UNL98       0.2090
    589 O          10.7393   10.0775    8.6203 O.3    99  UNL99      -0.3982
    590 C          10.0641    8.8540    8.8475 C.3    99  UNL99       0.0330
    591 H           9.6166    8.5048    7.9136 H      99  UNL99       0.0521
    592 H           9.2886    8.9997    9.6033 H      99  UNL99       0.0521
    593 H          10.7827    8.1125    9.2042 H      99  UNL99       0.0521
    594 H          10.0765   10.7153    8.3048 H      99  UNL99       0.2090
    595 O           8.7860    9.0616   13.2464 O.3   100  UNL100     -0.3982
    596 C           8.7480    9.2904   11.8497 C.3   100  UNL100      0.0330
    597 H           8.0516    8.5890   11.3835 H     100  UNL100      0.0521
    598 H           9.7487    9.1595   11.4309 H     100  UNL100      0.0521
    599 H           8.4095   10.3128   11.6662 H     100  UNL100      0.0521
    600 H           9.0896    8.1473   13.3780 H     100  UNL100      0.2090
    601 O          11.3880    8.4752   14.7961 O.3   101  UNL101     -0.3982
    602 C          10.5938    9.2277   15.6947 C.3   101  UNL101      0.0330
    603 H           9.5969    9.3700   15.2700 H     101  UNL101      0.0521
    604 H          11.0659   10.1964   15.8760 H     101  UNL101      0.0521
    605 H          10.5113    8.6828   16.6380 H     101  UNL101      0.0521
    606 H          11.4432    8.9835   13.9690 H     101  UNL101      0.2090
    607 O           8.0989    9.1255   18.2826 O.3   102  UNL102     -0.3982
    608 C           9.4387    9.0505   18.7340 C.3   102  UNL102      0.0330
    609 H          10.0330    9.8263   18.2448 H     102  UNL102      0.0521
    610 H           9.8473    8.0637   18.5030 H     102  UNL102      0.0521
    611 H           9.4587    9.2067   19.8151 H     102  UNL102      0.0521
    612 H           8.1131    8.9831   17.3208 H     102  UNL102      0.2090
    613 O           9.4336   12.3794   -0.0968 O.3   103  UNL103     -0.3982
    614 C           8.0178   12.3794   -0.0968 C.3   103  UNL103      0.0330
    615 H           7.6525   11.6104    0.5884 H     103  UNL103      0.0521
    616 H           7.6526   12.1847   -1.1081 H     103  UNL103      0.0521
    617 H           7.6625   13.3580    0.2344 H     103  UNL103      0.0521
    618 H           9.7193   11.4990   -0.3948 H     103  UNL103      0.2090
    619 O           8.7747   12.5979    3.6985 O.3   104  UNL104     -0.3982
    620 C           8.7074   13.7575    2.8890 C.3   104  UNL104      0.0330
    621 H           8.1575   13.5315    1.9720 H     104  UNL104      0.0521
    622 H           9.7187   14.0930    2.6467 H     104  UNL104      0.0521
    623 H           8.1866   14.5450    3.4388 H     104  UNL104      0.0521
    624 H           9.2416   11.9173    3.1844 H     104  UNL104      0.2090
    625 O          11.7466   13.5177    5.6451 O.3   105  UNL105     -0.3982
    626 C          10.9553   12.3659    5.8723 C.3   105  UNL105      0.0330
    627 H           9.8971   12.6347    5.8263 H     105  UNL105      0.0521
    628 H          11.1934   11.9468    6.8530 H     105  UNL105      0.0521
    629 H          11.1750   11.6258    5.0992 H     105  UNL105      0.0521
    630 H          11.5300   14.1559    6.3461 H     105  UNL105      0.2090
    631 O          11.8554   13.6568    9.0595 O.3   106  UNL106     -0.3982
    632 C          10.4396   13.6568    9.0595 C.3   106  UNL106      0.0330
    633 H          10.0743   12.8878    9.7447 H     106  UNL106      0.0521
    634 H          10.0744   13.4621    8.0482 H     106  UNL106      0.0521
    635 H          10.0843   14.6354    9.3907 H     106  UNL106      0.0521
    636 H          12.1411   12.7764    8.7615 H     106  UNL106      0.2090
    637 O          10.1328   12.4341   12.0946 O.3   107  UNL107     -0.3982
    638 C           8.7170   12.4341   12.0946 C.3   107  UNL107      0.0330
    639 H           8.3517   11.6651   12.7798 H     107  UNL107      0.0521
    640 H           8.3518   12.2394   11.0833 H     107  UNL107      0.0521
    641 H           8.3617   13.4127   12.4258 H     107  UNL107      0.0521
    642 H          10.4185   11.5537   11.7966 H     107  UNL107      0.2090
    643 O           9.9531   12.7228   15.3314 O.3   108  UNL108     -0.3982
    644 C           8.5373   12.7228   15.3314 C.3   108  UNL108      0.0330
    645 H           8.1720   13.7282   15.1076 H     108  UNL108      0.0521
    646 H           8.1721   12.4002   16.3094 H     108  UNL108      0.0521
    647 H           8.1820   12.0295   14.5654 H     108  UNL108      0.0521
    648 H          10.2388   13.3465   16.0205 H     108  UNL108      0.2090
    649 O          11.3790   12.5956   17.8886 O.3   109  UNL109     -0.3982
    650 C          10.5877   12.9086   19.0202 C.3   109  UNL109      0.0330
    651 H          10.2911   11.9859   19.5250 H     109  UNL109      0.0521
    652 H           9.7017   13.4645   18.7038 H     109  UNL109      0.0521
    653 H          11.1755   13.5237   19.7056 H     109  UNL109      0.0521
    654 H          10.8312   12.0498   17.2991 H     109  UNL109      0.2090
    655 O          14.9341   -0.9007    2.2714 O.3   110  UNL110     -0.3982
    656 C          14.4996   -0.1690    3.4029 C.3   110  UNL110      0.0330
    657 H          13.7005   -0.7176    3.9078 H     110  UNL110      0.0521
    658 H          14.1387    0.8126    3.0865 H     110  UNL110      0.0521
    659 H          15.3408   -0.0420    4.0883 H     110  UNL110      0.0521
    660 H          14.1669   -0.9974    1.6818 H     110  UNL110      0.2090
    661 O          12.0970   -0.2564    7.7342 O.3   111  UNL111     -0.3982
    662 C          12.0913   -0.4476    9.1370 C.3   111  UNL111      0.0330
    663 H          12.9737    0.0264    9.5739 H     111  UNL111      0.0521
    664 H          12.0912   -1.5174    9.3597 H     111  UNL111      0.0521
    665 H          11.1908    0.0093    9.5542 H     111  UNL111      0.0521
    666 H          12.9069   -0.6720    7.3925 H     111  UNL111      0.2090
    667 O          14.0756   -0.1926   18.6932 O.3   112  UNL112     -0.3982
    668 C          14.8420   -0.6788   19.7798 C.3   112  UNL112      0.0330
    669 H          15.8973   -0.4478   19.6148 H     112  UNL112      0.0521
    670 H          14.7042   -1.7590   19.8695 H     112  UNL112      0.0521
    671 H          14.5042   -0.1931   20.6983 H     112  UNL112      0.0521
    672 H          14.3979   -0.6412   17.8929 H     112  UNL112      0.2090
    673 O          13.4742    2.1843   -0.6882 O.3   113  UNL113     -0.3982
    674 C          12.0584    2.1843   -0.6882 C.3   113  UNL113      0.0330
    675 H          11.6931    3.1897   -0.9120 H     113  UNL113      0.0521
    676 H          11.6932    1.8617    0.2898 H     113  UNL113      0.0521
    677 H          11.7031    1.4911   -1.4542 H     113  UNL113      0.0521
    678 H          13.7599    2.8080    0.0009 H     113  UNL113      0.2090
    679 O          14.0055    3.0096    2.5078 O.3   114  UNL114     -0.3982
    680 C          12.5897    3.0096    2.5078 C.3   114  UNL114      0.0330
    681 H          12.2244    3.6819    3.2881 H     114  UNL114      0.0521
    682 H          12.2245    1.9952    2.6857 H     114  UNL114      0.0521
    683 H          12.2344    3.3570    1.5349 H     114  UNL114      0.0521
    684 H          14.2912    2.6970    3.3832 H     114  UNL114      0.2090
    685 O          12.8593    1.1407    5.9523 O.3   115  UNL115     -0.3982
    686 C          12.6274    2.5374    5.9523 C.3   115  UNL115      0.0330
    687 H          12.9008    2.9531    4.9793 H     115  UNL115      0.0521
    688 H          13.2214    3.0062    6.7407 H     115  UNL115      0.0521
    689 H          11.5670    2.7215    6.1399 H     115  UNL115      0.0521
    690 H          13.8078    1.0086    5.7837 H     115  UNL115      0.2090
    691 O          13.4555    2.5206    9.0623 O.3   116  UNL116     -0.3982
    692 C          14.7516    3.0878    9.1170 C.3   116  UNL116      0.0330
    693 H          14.8177    3.7664    9.9710 H     116  UNL116      0.0521
    694 H          14.9520    3.6308    8.1901 H     116  UNL116      0.0521
    695 H          15.4853    2.2867    9.2332 H     116  UNL116      0.0521
    696 H          12.8264    3.2549    8.9590 H     116  UNL116      0.2090
    697 O          15.3805    1.8878   12.0925 O.3   117  UNL117     -0.3982
    698 C          13.9647    1.8878   12.0925 C.3   117  UNL117      0.0330
    699 H          13.5994    2.8856   11.8369 H     117  UNL117      0.0521
    700 H          13.5995    1.5965   13.0803 H     117  UNL117      0.0521
    701 H          13.6094    1.1705   11.3489 H     117  UNL117      0.0521
    702 H          15.6662    2.5331   12.7614 H     117  UNL117      0.2090
    703 O          15.3922    2.5973   15.5743 O.3   118  UNL118     -0.3982
    704 C          13.9764    2.5973   15.5743 C.3   118  UNL118      0.0330
    705 H          13.6111    1.5704   15.4938 H     118  UNL118      0.0521
    706 H          13.6112    3.1922   14.7337 H     118  UNL118      0.0521
    707 H          13.6211    3.0357   16.5098 H     118  UNL118      0.0521
    708 H          15.6779    2.2028   14.7327 H     118  UNL118      0.2090
    709 O          13.9313    2.1997   18.6438 O.3   119  UNL119     -0.3982
    710 C          12.5155    2.1997   18.6438 C.3   119  UNL119      0.0330
    711 H          12.1502    3.1241   18.1895 H     119  UNL119      0.0521
    712 H          12.1503    2.1165   19.6703 H     119  UNL119      0.0521
    713 H          12.1602    1.3455   18.0627 H     119  UNL119      0.0521
    714 H          14.2170    2.9682   19.1666 H     119  UNL119      0.2090
    715 O          13.8063    5.4006   -0.3937 O.3   120  UNL120     -0.3982
    716 C          12.3905    5.4006   -0.3937 C.3   120  UNL120      0.0330
    717 H          12.0252    4.6316    0.2915 H     120  UNL120      0.0521
    718 H          12.0253    5.2059   -1.4050 H     120  UNL120      0.0521
    719 H          12.0352    6.3792   -0.0625 H     120  UNL120      0.0521
    720 H          14.0920    4.5202   -0.6917 H     120  UNL120      0.2090
    721 O          13.9874    5.7098    2.4535 O.3   121  UNL121     -0.3982
    722 C          14.5157    7.0152    2.5993 C.3   121  UNL121      0.0330
    723 H          14.2784    7.6066    1.7115 H     121  UNL121      0.0521
    724 H          15.5987    6.9580    2.7332 H     121  UNL121      0.0521
    725 H          14.0664    7.4843    3.4778 H     121  UNL121      0.0521
    726 H          14.4043    5.3191    1.6667 H     121  UNL121      0.2090
    727 O          13.6656    5.6272    4.9813 O.3   122  UNL122     -0.3982
    728 C          12.2498    5.6272    4.9813 C.3   122  UNL122      0.0330
    729 H          11.8845    4.8582    5.6665 H     122  UNL122      0.0521
    730 H          11.8846    5.4325    3.9700 H     122  UNL122      0.0521
    731 H          11.8945    6.6058    5.3125 H     122  UNL122      0.0521
    732 H          13.9513    4.7468    4.6833 H     122  UNL122      0.2090
    733 O          12.5197    5.4568    7.7409 O.3   123  UNL123     -0.3982
    734 C          12.4817    5.6856    9.1376 C.3   123  UNL123      0.0330
    735 H          13.2612    5.0954    9.6258 H     123  UNL123      0.0521
    736 H          11.4999    5.4054    9.5270 H     123  UNL123      0.0521
    737 H          12.6576    6.7468    9.3287 H     123  UNL123      0.0521
    738 H          12.3604    4.5076    7.6024 H     123  UNL123      0.2090
    739 O          14.1461    5.4202   12.3525 O.3   124  UNL124     -0.3982
    740 C          12.7303    5.4202   12.3525 C.3   124  UNL124      0.0330
    741 H          12.3650    4.6512   13.0376 H     124  UNL124      0.0521
    742 H          12.3651    5.2255   11.3412 H     124  UNL124      0.0521
    743 H          12.3750    6.3988   12.6837 H     124  UNL124      0.0521
    744 H          14.4318    4.5398   12.0545 H     124  UNL124      0.2090
    745 O          14.2711    5.5547   15.4193 O.3   125  UNL125     -0.3982
    746 C          12.8553    5.5547   15.4193 C.3   125  UNL125      0.0330
    747 H          12.4900    6.1047   16.2902 H     125  UNL125      0.0521
    748 H          12.4901    4.5252   15.4458 H     125  UNL125      0.0521
    749 H          12.5000    6.0418   14.5082 H     125  UNL125      0.0521
    750 H          14.5568    5.1165   16.2390 H     125  UNL125      0.2090
    751 O          13.0063    4.9475   18.6063 O.3   126  UNL126     -0.3982
    752 C          12.7744    6.3442   18.6063 C.3   126  UNL126      0.0330
    753 H          11.9235    6.5732   17.9599 H     126  UNL126      0.0521
    754 H          13.6673    6.8626   18.2486 H     126  UNL126      0.0521
    755 H          12.5520    6.6674   19.6259 H     126  UNL126      0.0521
    756 H          13.2008    4.6902   17.6890 H     126  UNL126      0.2090
    757 O          13.7203    8.6201   -0.6882 O.3   127  UNL127     -0.3982
    758 C          12.3045    8.6201   -0.6882 C.3   127  UNL127      0.0330
    759 H          11.9392    9.6255   -0.9120 H     127  UNL127      0.0521
    760 H          11.9393    8.2975    0.2898 H     127  UNL127      0.0521
    761 H          11.9492    7.9269   -1.4542 H     127  UNL127      0.0521
    762 H          14.0060    9.2438    0.0009 H     127  UNL127      0.2090
    763 O          11.0222    9.2633    2.4514 O.3   128  UNL128     -0.3982
    764 C          12.3620    8.9835    2.8134 C.3   128  UNL128      0.0330
    765 H          12.7743    9.8289    3.3699 H     128  UNL128      0.0521
    766 H          12.9537    8.8031    1.9126 H     128  UNL128      0.0521
    767 H          12.3808    8.0913    3.4437 H     128  UNL128      0.0521
    768 H          11.0374   10.0593    1.8931 H     128  UNL128      0.2090
    769 O          13.3727    8.8002    6.1806 O.3   129  UNL129     -0.3982
    770 C          11.9569    8.8002    6.1806 C.3   129  UNL129      0.0330
    771 H          11.5916    8.0312    6.8657 H     129  UNL129      0.0521
    772 H          11.5917    8.6055    5.1693 H     129  UNL129      0.0521
    773 H          11.6016    9.7788    6.5118 H     129  UNL129      0.0521
    774 H          13.6584    7.9198    5.8826 H     129  UNL129      0.2090
    775 O          13.7110    8.3258    8.6945 O.3   130  UNL130     -0.3982
    776 C          13.7896    9.7211    8.9217 C.3   130  UNL130      0.0330
    777 H          14.0416   10.2296    7.9878 H     130  UNL130      0.0521
    778 H          14.5517    9.9257    9.6776 H     130  UNL130      0.0521
    779 H          12.8207   10.0781    9.2784 H     130  UNL130      0.0521
    780 H          14.5846    8.0381    8.3790 H     130  UNL130      0.2090
    781 O          11.9129    9.0152   11.5721 O.3   131  UNL131     -0.3982
    782 C          13.2527    8.7353   11.9341 C.3   131  UNL131      0.0330
    783 H          13.8199    8.4513   11.0441 H     131  UNL131      0.0521
    784 H          13.2715    7.9237   12.6655 H     131  UNL131      0.0521
    785 H          13.6960    9.6309   12.3756 H     131  UNL131      0.0521
    786 H          11.5462    8.2027   11.1836 H     131  UNL131      0.2090
    787 O          14.7143    7.9240   15.4657 O.3   132  UNL132     -0.3982
    788 C          14.1213    9.2051   15.3574 C.3   132  UNL132      0.0330
    789 H          13.9960    9.4616   14.3025 H     132  UNL132      0.0521
    790 H          14.7571    9.9447   15.8502 H     132  UNL132      0.0521
    791 H          13.1434    9.1863   15.8442 H     132  UNL132      0.0521
    792 H          15.5798    7.9717   15.0252 H     132  UNL132      0.2090
    793 O          12.4024   10.3256   18.5854 O.3   133  UNL133     -0.3982
    794 C          12.5901    8.9228   18.5485 C.3   133  UNL133      0.0330
    795 H          12.8492    8.6155   17.5322 H     133  UNL133      0.0521
    796 H          11.6727    8.4230   18.8689 H     133  UNL133      0.0521
    797 H          13.4040    8.6552   19.2263 H     133  UNL133      0.0521
    798 H          11.6746   10.5326   17.9747 H     133  UNL133      0.2090
    799 O          13.5211   11.9888   -0.4953 O.3   134  UNL134     -0.3982
    800 C          12.1053   11.9888   -0.4953 C.3   134  UNL134      0.0330
    801 H          11.7400   11.2198    0.1899 H     134  UNL134      0.0521
    802 H          11.7401   11.7941   -1.5066 H     134  UNL134      0.0521
    803 H          11.7500   12.9674   -0.1641 H     134  UNL134      0.0521
    804 H          13.8068   11.1084   -0.7933 H     134  UNL134      0.2090
    805 O          11.2743   12.4560    2.6530 O.3   135  UNL135     -0.3982
    806 C          12.6141   12.1206    2.9642 C.3   135  UNL135      0.0330
    807 H          13.1654   13.0264    3.2285 H     135  UNL135      0.0521
    808 H          13.0792   11.6367    2.1020 H     135  UNL135      0.0521
    809 H          12.6201   11.4323    3.8127 H     135  UNL135      0.0521
    810 H          11.3009   13.0671    1.8971 H     135  UNL135      0.2090
    811 O          14.5360   13.5709    5.3717 O.3   136  UNL136     -0.3982
    812 C          14.6146   12.1757    5.5989 C.3   136  UNL136      0.0330
    813 H          13.6130   11.7411    5.5528 H     136  UNL136      0.0521
    814 H          15.0593   11.9898    6.5795 H     136  UNL136      0.0521
    815 H          15.2411   11.7245    4.8258 H     136  UNL136      0.0521
    816 H          13.9744   13.9433    6.0727 H     136  UNL136      0.2090
    817 O          14.9736   12.1922    9.0595 O.3   137  UNL137     -0.3982
    818 C          14.7417   13.5889    9.0595 C.3   137  UNL137      0.0330
    819 H          13.9232   13.8233    9.7447 H     137  UNL137      0.0521
    820 H          14.4898   13.9173    8.0482 H     137  UNL137      0.0521
    821 H          15.6489   14.0997    9.3907 H     137  UNL137      0.0521
    822 H          14.1519   11.7662    8.7615 H     137  UNL137      0.2090
    823 O          12.6974   13.3129   11.6030 O.3   138  UNL138     -0.3982
    824 C          12.6917   11.9101   11.4118 C.3   138  UNL138      0.0330
    825 H          12.1616   11.4308   12.2386 H     138  UNL138      0.0521
    826 H          13.7201   11.5439   11.3633 H     138  UNL138      0.0521
    827 H          12.1812   11.6815   10.4733 H     138  UNL138      0.0521
    828 H          13.1566   13.4849   12.4427 H     138  UNL138      0.2090
    829 O          13.9742   12.1780   14.7865 O.3   139  UNL139     -0.3982
    830 C          12.5584   12.1780   14.7865 C.3   139  UNL139      0.0330
    831 H          12.1931   12.7280   15.6574 H     139  UNL139      0.0521
    832 H          12.1932   11.1485   14.8129 H     139  UNL139      0.0521
    833 H          12.2031   12.6651   13.8754 H     139  UNL139      0.0521
    834 H          14.2599   11.7399   15.6062 H     139  UNL139      0.2090
    835 O          14.4811   12.8880   19.3875 O.3   140  UNL140     -0.3982
    836 C          14.4431   13.1168   17.9908 C.3   140  UNL140      0.0330
    837 H          13.4585   13.4987   17.7098 H     140  UNL140      0.0521
    838 H          14.6479   12.1827   17.4620 H     140  UNL140      0.0521
    839 H          15.2056   13.8548   17.7308 H     140  UNL140      0.0521
    840 H          13.7943   12.2295   19.5879 H     140  UNL140      0.2090
    841 O          18.7480   -1.4488    2.4367 O.3   141  UNL141     -0.3982
    842 C          17.9568   -0.2970    2.6638 C.3   141  UNL141      0.0330
    843 H          17.8451    0.2595    1.7299 H     141  UNL141      0.0521
    844 H          18.4345    0.3310    3.4197 H     141  UNL141      0.0521
    845 H          16.9719   -0.6072    3.0206 H     141  UNL141      0.0521
    846 H          19.6152   -1.1421    2.1212 H     141  UNL141      0.2090
    847 O          18.4291   -1.1473    5.3526 O.3   142  UNL142     -0.3982
    848 C          17.6378   -0.2075    6.0563 C.3   142  UNL142      0.0330
    849 H          17.3412   -0.6286    7.0201 H     142  UNL142      0.0521
    850 H          16.7518    0.0387    5.4660 H     142  UNL142      0.0521
    851 H          18.2256    0.6984    6.2223 H     142  UNL142      0.0521
    852 H          17.8813   -1.9397    5.2201 H     142  UNL142      0.2090
    853 O          16.7507    0.2208    9.0438 O.3   143  UNL143     -0.3982
    854 C          15.4586   -0.1412    8.5924 C.3   143  UNL143      0.0330
    855 H          14.7101    0.2119    9.3061 H     143  UNL143      0.0521
    856 H          15.3979   -1.2276    8.4921 H     143  UNL143      0.0521
    857 H          15.2790    0.3229    7.6198 H     143  UNL143      0.0521
    858 H          16.8813   -0.2054    9.9080 H     143  UNL143      0.2090
    859 O          17.2924   -0.4425   16.4563 O.3   144  UNL144     -0.3982
    860 C          17.2544   -0.2137   15.0597 C.3   144  UNL144      0.0330
    861 H          16.3753    0.3861   14.8115 H     144  UNL144      0.0521
    862 H          17.2160   -1.1708   14.5337 H     144  UNL144      0.0521
    863 H          18.1568    0.3263   14.7634 H     144  UNL144      0.0521
    864 H          16.4797   -0.9229   16.6894 H     144  UNL144      0.2090
    865 O          18.0028    0.0182   19.4275 O.3   145  UNL145     -0.3982
    866 C          18.5336   -1.1960   18.9292 C.3   145  UNL145      0.0330
    867 H          19.2744   -0.9805   18.1552 H     145  UNL145      0.0521
    868 H          17.7261   -1.8054   18.5161 H     145  UNL145      0.0521
    869 H          19.0128   -1.7371   19.7485 H     145  UNL145      0.0521
    870 H          17.5844    0.4758   18.6785 H     145  UNL145      0.2090
    871 O          17.0882    3.8560    3.3347 O.3   146  UNL146     -0.3982
    872 C          16.8563    2.6904    2.5652 C.3   146  UNL146      0.0330
    873 H          16.3483    1.9425    3.1791 H     146  UNL146      0.0521
    874 H          17.8091    2.2953    2.2047 H     146  UNL146      0.0521
    875 H          16.2249    2.9480    1.7117 H     146  UNL146      0.0521
    876 H          17.6508    3.5963    4.0841 H     146  UNL146      0.2090
    877 O          15.1209    3.1242    5.3986 O.3   147  UNL147     -0.3982
    878 C          16.2243    2.4217    5.9402 C.3   147  UNL147      0.0330
    879 H          16.9054    3.1272    6.4227 H     147  UNL147      0.0521
    880 H          16.7435    1.8857    5.1419 H     147  UNL147      0.0521
    881 H          15.8607    1.7053    6.6805 H     147  UNL147      0.0521
    882 H          15.4745    3.7519    4.7455 H     147  UNL147      0.2090
    883 O          18.6400    2.0816    9.5345 O.3   148  UNL148     -0.3982
    884 C          17.8487    2.9298    8.7227 C.3   148  UNL148      0.0330
    885 H          17.5521    3.8116    9.2961 H     148  UNL148      0.0521
    886 H          16.9628    2.3878    8.3832 H     148  UNL148      0.0521
    887 H          18.4365    3.2419    7.8563 H     148  UNL148      0.0521
    888 H          18.0922    1.8211   10.2945 H     148  UNL148      0.2090
    889 O          19.0735    3.6440   12.0488 O.3   149  UNL149     -0.3982
    890 C          17.6577    3.6440   12.0488 C.3   149  UNL149      0.0330
    891 H          17.2924    2.6200   11.9385 H     149  UNL149      0.0521
    892 H          17.2925    4.2631   11.2258 H     149  UNL149      0.0521
    893 H          17.3024    4.0552   12.9966 H     149  UNL149      0.0521
    894 H          19.3592    3.2741   11.1961 H     149  UNL149      0.2090
    895 O          19.1830    2.4439   14.3144 O.3   150  UNL150     -0.3982
    896 C          18.3917    2.7569   15.4459 C.3   150  UNL150      0.0330
    897 H          18.0951    1.8342   15.9508 H     150  UNL150      0.0521
    898 H          17.5057    3.3127   15.1296 H     150  UNL150      0.0521
    899 H          18.9795    3.3719   16.1314 H     150  UNL150      0.0521
    900 H          18.6352    1.8980   13.7248 H     150  UNL150      0.2090
    901 O          16.3658    3.8548   18.1844 O.3   151  UNL151     -0.3982
    902 C          16.8161    2.5392   18.4507 C.3   151  UNL151      0.0330
    903 H          17.8061    2.5783   18.9121 H     151  UNL151      0.0521
    904 H          16.8594    1.9721   17.5176 H     151  UNL151      0.0521
    905 H          16.1160    2.0558   19.1361 H     151  UNL151      0.0521
    906 H          17.0065    4.2580   17.5742 H     151  UNL151      0.2090
    907 O          17.7180    5.4006   -0.0421 O.3   152  UNL152     -0.3982
    908 C          16.3022    5.4006   -0.0421 C.3   152  UNL152      0.0330
    909 H          15.9369    4.6316    0.6431 H     152  UNL152      0.0521
    910 H          15.9370    5.2059   -1.0534 H     152  UNL152      0.0521
    911 H          15.9469    6.3792    0.2891 H     152  UNL152      0.0521
    912 H          18.0037    4.5202   -0.3401 H     152  UNL152      0.2090
    913 O          17.6008    7.9211    3.4698 O.3   153  UNL153     -0.3982
    914 C          18.0819    7.4179    2.2370 C.3   153  UNL153      0.0330
    915 H          17.3577    6.7119    1.8230 H     153  UNL153      0.0521
    916 H          19.0420    6.9208    2.3952 H     153  UNL153      0.0521
    917 H          18.2151    8.2498    1.5414 H     153  UNL153      0.0521
    918 H          17.4926    7.1606    4.0661 H     153  UNL153      0.2090
    919 O          17.5813    5.8381    5.5829 O.3   154  UNL154     -0.3982
    920 C          16.1655    5.8381    5.5829 C.3   154  UNL154      0.0330
    921 H          15.8002    5.0691    6.2681 H     154  UNL154      0.0521
    922 H          15.8003    5.6434    4.5716 H     154  UNL154      0.0521
    923 H          15.8102    6.8167    5.9141 H     154  UNL154      0.0521
    924 H          17.8670    4.9577    5.2849 H     154  UNL154      0.2090
    925 O          15.1171    6.0723    8.4097 O.3   155  UNL155     -0.3982
    926 C          16.4570    5.7104    8.6896 C.3   155  UNL155      0.0330
    927 H          16.4765    4.9875    9.5090 H     155  UNL155      0.0521
    928 H          17.0267    6.6019    8.9625 H     155  UNL155      0.0521
    929 H          16.8967    5.2585    7.7974 H     155  UNL155      0.0521
    930 H          14.7536    6.4702    9.2191 H     155  UNL155      0.2090
    931 O          18.0540    6.8499   11.7314 O.3   156  UNL156     -0.3982
    932 C          16.6382    6.8499   11.7314 C.3   156  UNL156      0.0330
    933 H          16.2729    6.0809   12.4166 H     156  UNL156      0.0521
    934 H          16.2730    6.6552   10.7201 H     156  UNL156      0.0521
    935 H          16.2829    7.8285   12.0626 H     156  UNL156      0.0521
    936 H          18.3397    5.9695   11.4334 H     156  UNL156      0.2090
    937 O          17.1879    5.7725   14.3233 O.3   157  UNL157     -0.3982
    938 C          16.9559    5.5438   15.7011 C.3   157  UNL157      0.0330
    939 H          16.3536    6.3586   16.1104 H     157  UNL157      0.0521
    940 H          17.9118    5.4832   16.2272 H     157  UNL157      0.0521
    941 H          16.4173    4.6006   15.8189 H     157  UNL157      0.0521
    942 H          17.6669    6.6156   14.2503 H     157  UNL157      0.2090
    943 O          15.7150    6.3962   18.6517 O.3   158  UNL158     -0.3982
    944 C          17.0548    6.8476   18.5767 C.3   158  UNL158      0.0330
    945 H          17.1791    7.4778   17.6926 H     158  UNL158      0.0521
    946 H          17.7273    5.9880   18.5221 H     158  UNL158      0.0521
    947 H          17.2840    7.4304   19.4720 H     158  UNL158      0.0521
    948 H          15.5409    5.8827   17.8445 H     158  UNL158      0.2090
    949 O          17.7805    8.6358   -0.7234 O.3   159  UNL159     -0.3982
    950 C          16.3647    8.6358   -0.7234 C.3   159  UNL159      0.0330
    951 H          15.9994    9.6412   -0.9471 H     159  UNL159      0.0521
    952 H          15.9995    8.3131    0.2546 H     159  UNL159      0.0521
    953 H          16.0094    7.9425   -1.4894 H     159  UNL159      0.0521
    954 H          18.0662    9.2594   -0.0342 H     159  UNL159      0.2090
    955 O          14.8124   10.2531    2.5074 O.3   160  UNL160     -0.3982
    956 C          16.1523    9.8912    2.7873 C.3   160  UNL160      0.0330
    957 H          16.1718    9.1683    3.6066 H     160  UNL160      0.0521
    958 H          16.7221   10.7827    3.0601 H     160  UNL160      0.0521
    959 H          16.5920    9.4393    1.8950 H     160  UNL160      0.0521
    960 H          14.4490   10.6510    3.3168 H     160  UNL160      0.2090
    961 O          17.2571    9.1752    6.1376 O.3   161  UNL161     -0.3982
    962 C          15.8413    9.1752    6.1376 C.3   161  UNL161      0.0330
    963 H          15.4760    8.4062    6.8228 H     161  UNL161      0.0521
    964 H          15.4761    8.9805    5.1263 H     161  UNL161      0.0521
    965 H          15.4860   10.1538    6.4688 H     161  UNL161      0.0521
    966 H          17.5428    8.2948    5.8396 H     161  UNL161      0.2090
    967 O          18.0566   10.0431    8.8029 O.3   162  UNL162     -0.3982
    968 C          17.2654    8.8703    8.7497 C.3   162  UNL162      0.0330
    969 H          17.1537    8.4590    9.7560 H     162  UNL162      0.0521
    970 H          17.7431    8.1368    8.0956 H     162  UNL162      0.0521
    971 H          16.2805    9.1240    8.3507 H     162  UNL162      0.0521
    972 H          18.9238    9.7867    9.1606 H     162  UNL162      0.2090
    973 O          15.6733   10.0658   12.8815 O.3   163  UNL163     -0.3982
    974 C          16.3442   10.0658   11.6347 C.3   163  UNL163      0.0330
    975 H          15.9139    9.2968   10.9883 H     163  UNL163      0.0521
    976 H          17.4078    9.8711   11.7923 H     163  UNL163      0.0521
    977 H          16.2209   11.0444   11.1649 H     163  UNL163      0.0521
    978 H          15.8004    9.1854   13.2743 H     163  UNL163      0.2090
    979 O          18.5053    8.9241   15.1132 O.3   164  UNL164     -0.3982
    980 C          17.6879   10.0017   15.5318 C.3   164  UNL164      0.0330
    981 H          18.0176   10.3504   16.5136 H     164  UNL164      0.0521
    982 H          16.6470    9.6728   15.5808 H     164  UNL164      0.0521
    983 H          17.7766   10.8164   14.8094 H     164  UNL164      0.0521
    984 H          18.4058    8.2169   15.7732 H     164  UNL164      0.2090
    985 O          16.2297   10.9844   18.3369 O.3   165  UNL165     -0.3982
    986 C          15.9977    9.5877   18.3369 C.3   165  UNL165      0.0330
    987 H          16.6965    9.1014   19.0221 H     165  UNL165      0.0521
    988 H          16.1300    9.1956   17.3256 H     165  UNL165      0.0521
    989 H          14.9742    9.3975   18.6681 H     165  UNL165      0.0521
    990 H          17.1450   11.1220   18.0389 H     165  UNL165      0.2090
    991 O          17.5383   12.0903   -0.4796 O.3   166  UNL166     -0.3982
    992 C          16.1225   12.0903   -0.4796 C.3   166  UNL166      0.0330
    993 H          15.7572   11.3213    0.2056 H     166  UNL166      0.0521
    994 H          15.7573   11.8956   -1.4909 H     166  UNL166      0.0521
    995 H          15.7672   13.0689   -0.1484 H     166  UNL166      0.0521
    996 H          17.8240   11.2099   -0.7776 H     166  UNL166      0.2090
    997 O          15.1171   13.1547    2.4719 O.3   167  UNL167     -0.3982
    998 C          16.4570   13.3345    2.8927 C.3   167  UNL167      0.0330
    999 H          16.4765   13.9455    3.7985 H     167  UNL167      0.0521
   1000 H          17.0267   13.8229    2.0985 H     167  UNL167      0.0521
   1001 H          16.8967   12.3573    3.1054 H     167  UNL167      0.0521
   1002 H          14.7536   14.0382    2.2906 H     167  UNL167      0.2090
   1003 O          18.9100   13.2716    5.6022 O.3   168  UNL168     -0.3982
   1004 C          18.1187   12.1198    5.8293 C.3   168  UNL168      0.0330
   1005 H          17.0605   12.3887    5.7833 H     168  UNL168      0.0521
   1006 H          18.3568   11.7007    6.8100 H     168  UNL168      0.0521
   1007 H          18.3383   11.3797    5.0563 H     168  UNL168      0.0521
   1008 H          18.6934   13.9098    6.3031 H     168  UNL168      0.2090
   1009 O          19.1633   12.6802    9.1493 O.3   169  UNL169     -0.3982
   1010 C          17.7475   12.6802    9.1493 C.3   169  UNL169      0.0330
   1011 H          17.3822   11.9112    9.8345 H     169  UNL169      0.0521
   1012 H          17.3823   12.4855    8.1380 H     169  UNL169      0.0521
   1013 H          17.3922   13.6588    9.4805 H     169  UNL169      0.0521
   1014 H          19.4490   11.7998    8.8513 H     169  UNL169      0.2090
   1015 O          16.9719   13.0786   12.1767 O.3   170  UNL170     -0.3982
   1016 C          15.5561   13.0786   12.1767 C.3   170  UNL170      0.0330
   1017 H          15.1908   12.3096   12.8619 H     170  UNL170      0.0521
   1018 H          15.1909   12.8839   11.1654 H     170  UNL170      0.0521
   1019 H          15.2008   14.0572   12.5079 H     170  UNL170      0.0521
   1020 H          17.2576   12.1982   11.8787 H     170  UNL170      0.2090
   1021 O          16.8528   12.5829   16.2892 O.3   171  UNL171     -0.3982
   1022 C          16.8148   12.8117   14.8925 C.3   171  UNL171      0.0330
   1023 H          17.8329   12.8177   14.4955 H     171  UNL171      0.0521
   1024 H          16.3287   13.7696   14.6925 H     171  UNL171      0.0521
   1025 H          16.2451   12.0101   14.4166 H     171  UNL171      0.0521
   1026 H          17.3643   13.3096   16.6840 H     171  UNL171      0.2090
   1027 O          17.4857   13.0566   18.8910 O.3   172  UNL172     -0.3982
   1028 C          18.8292   13.4588   18.6969 C.3   172  UNL172      0.0330
   1029 H          19.1597   14.0534   19.5522 H     172  UNL172      0.0521
   1030 H          18.9053   14.0472   17.7793 H     172  UNL172      0.0521
   1031 H          19.4574   12.5692   18.6098 H     172  UNL172      0.0521
   1032 H          16.9528   13.8665   18.9647 H     172  UNL172      0.2090
   1033 O          18.9357   -1.0800   -0.5049 O.3   173  UNL173     -0.3982
   1034 C          20.2755   -0.6286   -0.4299 C.3   173  UNL173      0.0330
   1035 H          20.8426   -1.2777    0.2418 H     173  UNL173      0.0521
   1036 H          20.2943    0.4001   -0.0618 H     173  UNL173      0.0521
   1037 H          20.7188   -0.6642   -1.4278 H     173  UNL173      0.0521
   1038 H          18.5690   -1.0371    0.3947 H     173  UNL173      0.2090
   1039 O          22.4229   -1.0231    2.3162 O.3   174  UNL174     -0.3982
   1040 C          21.6316   -0.6098    3.4151 C.3   174  UNL174      0.0330
   1041 H          21.3350   -1.4835    4.0008 H     174  UNL174      0.0521
   1042 H          20.7456   -0.0846    3.0501 H     174  UNL174      0.0521
   1043 H          22.2194    0.0643    4.0426 H     174  UNL174      0.0521
   1044 H          21.8751   -1.6196    1.7781 H     174  UNL174      0.2090
   1045 O          19.5320    0.3561    8.3876 O.3   175  UNL175     -0.3982
   1046 C          19.3001   -1.0406    8.3876 C.3   175  UNL175      0.0330
   1047 H          19.9989   -1.5269    9.0728 H     175  UNL175      0.0521
   1048 H          19.4324   -1.4327    7.3763 H     175  UNL175      0.0521
   1049 H          18.2766   -1.2308    8.7188 H     175  UNL175      0.0521
   1050 H          20.4474    0.4937    8.0896 H     175  UNL175      0.2090
   1051 O          19.3602    0.2623   11.8837 O.3   176  UNL176     -0.3982
   1052 C          19.1283   -1.1343   11.8837 C.3   176  UNL176      0.0330
   1053 H          19.8270   -1.6207   12.5689 H     176  UNL176      0.0521
   1054 H          19.2605   -1.5265   10.8724 H     176  UNL176      0.0521
   1055 H          18.1047   -1.3245   12.2149 H     176  UNL176      0.0521
   1056 H          20.2755    0.4000   11.5857 H     176  UNL176      0.2090
   1057 O          20.7043   -0.6445   16.2024 O.3   177  UNL177     -0.3982
   1058 C          20.4724   -0.6445   14.8058 C.3   177  UNL177      0.0330
   1059 H          19.7366   -1.4135   14.5576 H     177  UNL177      0.0521
   1060 H          21.4102   -0.8392   14.2798 H     177  UNL177      0.0521
   1061 H          20.0875    0.3341   14.5095 H     177  UNL177      0.0521
   1062 H          21.0451   -1.5249   16.4355 H     177  UNL177      0.2090
   1063 O          20.9853    2.5609   -0.6478 O.3   178  UNL178     -0.3982
   1064 C          19.5695    2.5609   -0.6478 C.3   178  UNL178      0.0330
   1065 H          19.2042    2.9463    0.3074 H     178  UNL178      0.0521
   1066 H          19.2043    1.5432   -0.8058 H     178  UNL178      0.0521
   1067 H          19.2142    3.2029   -1.4571 H     178  UNL178      0.0521
   1068 H          21.2710    1.9832    0.0804 H     178  UNL178      0.2090
   1069 O          20.6132    4.5229    2.7115 O.3   179  UNL179     -0.3982
   1070 C          20.3813    3.1262    2.7115 C.3   179  UNL179      0.0330
   1071 H          20.5858    2.7219    1.7170 H     179  UNL179      0.0521
   1072 H          19.3435    2.9283    2.9905 H     179  UNL179      0.0521
   1073 H          21.0477    2.6554    3.4379 H     179  UNL179      0.0521
   1074 H          20.0080    4.9130    2.0579 H     179  UNL179      0.2090
   1075 O          19.0434    2.4559    5.6944 O.3   180  UNL180     -0.3982
   1076 C          20.3832    2.5309    6.1457 C.3   180  UNL180      0.0330
   1077 H          20.8380    3.4577    5.7875 H     180  UNL180      0.0521
   1078 H          20.9430    1.6698    5.7726 H     180  UNL180      0.0521
   1079 H          20.3911    2.5222    7.2382 H     180  UNL180      0.0521
   1080 H          19.0684    2.4655    4.7223 H     180  UNL180      0.2090
   1081 O          21.1267    2.4738    9.1717 O.3   181  UNL181     -0.3982
   1082 C          22.4227    3.0409    9.2263 C.3   181  UNL181      0.0330
   1083 H          22.4888    3.7195   10.0804 H     181  UNL181      0.0521
   1084 H          22.6231    3.5839    8.2995 H     181  UNL181      0.0521
   1085 H          23.1565    2.2399    9.3426 H     181  UNL181      0.0521
   1086 H          20.4976    3.2081    9.0684 H     181  UNL181      0.2090
   1087 O          23.1376    2.4535   12.4179 O.3   182  UNL182     -0.3982
   1088 C          21.7218    2.4535   12.4179 C.3   182  UNL182      0.0330
   1089 H          21.3565    3.3992   12.8260 H     182  UNL182      0.0521
   1090 H          21.3566    1.6188   13.0211 H     182  UNL182      0.0521
   1091 H          21.3665    2.3409   11.3909 H     182  UNL182      0.0521
   1092 H          23.4233    2.5548   13.3418 H     182  UNL182      0.2090
   1093 O          22.0947    1.6461   15.1669 O.3   183  UNL183     -0.3982
   1094 C          21.8627    2.7511   16.0212 C.3   183  UNL183      0.0330
   1095 H          22.3529    3.6381   15.6124 H     183  UNL183      0.0521
   1096 H          22.2551    2.5313   17.0171 H     183  UNL183      0.0521
   1097 H          20.7869    2.9296   16.0871 H     183  UNL183      0.0521
   1098 H          23.0570    1.5120   15.1282 H     183  UNL183      0.2090
   1099 O          20.4833    3.1467   18.8530 O.3   184  UNL184     -0.3982
   1100 C          20.2514    1.7500   18.8530 C.3   184  UNL184      0.0330
   1101 H          21.0008    1.2553   18.2302 H     184  UNL184      0.0521
   1102 H          19.2495    1.5462   18.4674 H     184  UNL184      0.0521
   1103 H          20.3281    1.3771   19.8771 H     184  UNL184      0.0521
   1104 H          20.4087    3.4487   17.9318 H     184  UNL184      0.2090
   1105 O          21.5478    5.5491   -0.9484 O.3   185  UNL185     -0.3982
   1106 C          20.1320    5.5491   -0.9484 C.3   185  UNL185      0.0330
   1107 H          19.7667    4.7801   -0.2632 H     185  UNL185      0.0521
   1108 H          19.7668    5.3544   -1.9597 H     185  UNL185      0.0521
   1109 H          19.7767    6.5277   -0.6172 H     185  UNL185      0.0521
   1110 H          21.8335    4.6687   -1.2464 H     185  UNL185      0.2090
   1111 O          21.8947    7.0029    3.5703 O.3   186  UNL186     -0.3982
   1112 C          22.4660    6.9475    2.2761 C.3   186  UNL186      0.0330
   1113 H          21.6912    6.7039    1.5449 H     186  UNL186      0.0521
   1114 H          23.2522    6.1888    2.2561 H     186  UNL186      0.0521
   1115 H          22.8971    7.9222    2.0360 H     186  UNL186      0.0521
   1116 H          21.5206    6.1246    3.7553 H     186  UNL186      0.2090
   1117 O          21.5673    5.8772    5.8329 O.3   187  UNL187     -0.3982
   1118 C          20.1515    5.8772    5.8329 C.3   187  UNL187      0.0330
   1119 H          19.7862    5.1082    6.5181 H     187  UNL187      0.0521
   1120 H          19.7863    5.6825    4.8216 H     187  UNL187      0.0521
   1121 H          19.7962    6.8558    6.1641 H     187  UNL187      0.0521
   1122 H          21.8530    4.9968    5.5349 H     187  UNL187      0.2090
   1123 O          20.0569    6.9221    8.9902 O.3   188  UNL188     -0.3982
   1124 C          20.2764    5.5254    9.0652 C.3   188  UNL188      0.0330
   1125 H          20.7164    5.1740    8.1286 H     188  UNL188      0.0521
   1126 H          19.3272    5.0159    9.2480 H     188  UNL188      0.0521
   1127 H          20.9635    5.3174    9.8886 H     188  UNL188      0.0521
   1128 H          19.4439    7.0757    8.2512 H     188  UNL188      0.2090
   1129 O          20.8602    7.0185   12.6728 O.3   189  UNL189     -0.3982
   1130 C          20.6283    5.6218   12.6728 C.3   189  UNL189      0.0330
   1131 H          21.3270    5.1355   13.3580 H     189  UNL189      0.0521
   1132 H          20.7605    5.2296   11.6615 H     189  UNL189      0.0521
   1133 H          19.6047    5.4316   13.0040 H     189  UNL189      0.0521
   1134 H          21.7755    7.1561   12.3748 H     189  UNL189      0.2090
   1135 O          21.4071    6.0625   15.4623 O.3   190  UNL190     -0.3982
   1136 C          19.9913    6.0625   15.4623 C.3   190  UNL190      0.0330
   1137 H          19.6260    6.6125   16.3332 H     190  UNL190      0.0521
   1138 H          19.6261    5.0330   15.4887 H     190  UNL190      0.0521
   1139 H          19.6360    6.5496   14.5512 H     190  UNL190      0.0521
   1140 H          21.6928    5.6244   16.2820 H     190  UNL190      0.2090
   1141 O          21.4189    5.8772   19.2158 O.3   191  UNL191     -0.3982
   1142 C          20.0031    5.8772   19.2158 C.3   191  UNL191      0.0330
   1143 H          19.6378    5.1082   19.9010 H     191  UNL191      0.0521
   1144 H          19.6379    5.6825   18.2045 H     191  UNL191      0.0521
   1145 H          19.6478    6.8558   19.5470 H     191  UNL191      0.0521
   1146 H          21.7046    4.9968   18.9178 H     191  UNL191      0.2090
   1147 O          21.8759    8.8233   -0.6101 O.3   192  UNL192     -0.3982
   1148 C          20.4601    8.8233   -0.6101 C.3   192  UNL192      0.0330
   1149 H          20.0948    9.8287   -0.8339 H     192  UNL192      0.0521
   1150 H          20.0949    8.5006    0.3679 H     192  UNL192      0.0521
   1151 H          20.1048    8.1300   -1.3761 H     192  UNL192      0.0521
   1152 H          22.1616    9.4469    0.0791 H     192  UNL192      0.2090
   1153 O          20.5412   10.9726    2.8776 O.3   193  UNL193     -0.3982
   1154 C          20.3093    9.5759    2.8776 C.3   193  UNL193      0.0330
   1155 H          19.2540    9.3808    3.0836 H     193  UNL193      0.0521
   1156 H          20.9338    9.1020    3.6388 H     193  UNL193      0.0521
   1157 H          20.5671    9.1729    1.8953 H     193  UNL193      0.0521
   1158 H          20.3038   11.3016    3.7612 H     193  UNL193      0.2090
   1159 O          21.2548    9.3041    6.2665 O.3   194  UNL194     -0.3982
   1160 C          19.8390    9.3041    6.2665 C.3   194  UNL194      0.0330
   1161 H          19.4737    8.5351    6.9517 H     194  UNL194      0.0521
   1162 H          19.4738    9.1094    5.2552 H     194  UNL194      0.0521
   1163 H          19.4837   10.2827    6.5977 H     194  UNL194      0.0521
   1164 H          21.5405    8.4237    5.9685 H     194  UNL194      0.2090
   1165 O          21.6454    8.9367    8.8902 O.3   195  UNL195     -0.3982
   1166 C          22.2037   10.2330    9.0010 C.3   195  UNL195      0.0330
   1167 H          23.2942   10.1623    9.0016 H     195  UNL195      0.0521
   1168 H          21.8578   10.7019    9.9254 H     195  UNL195      0.0521
   1169 H          21.8802   10.8334    8.1474 H     195  UNL195      0.0521
   1170 H          21.9498    8.4277    9.6608 H     195  UNL195      0.2090
   1171 O          19.9900    9.6556   10.8908 O.3   196  UNL196     -0.3982
   1172 C          19.9520    9.8844   12.2875 C.3   196  UNL196      0.0330
   1173 H          20.6255    9.1860   12.7905 H     196  UNL196      0.0521
   1174 H          18.9308    9.7490   12.6521 H     196  UNL196      0.0521
   1175 H          20.2757   10.9082   12.4888 H     196  UNL196      0.0521
   1176 H          19.6978    8.7399   10.7433 H     196  UNL196      0.2090
   1177 O          22.3819    8.4749   15.1093 O.3   197  UNL197     -0.3982
   1178 C          21.5645    9.5525   15.5279 C.3   197  UNL197      0.0330
   1179 H          21.8942    9.9012   16.5097 H     197  UNL197      0.0521
   1180 H          20.5236    9.2236   15.5769 H     197  UNL197      0.0521
   1181 H          21.6532   10.3672   14.8055 H     197  UNL197      0.0521
   1182 H          22.2824    7.7677   15.7693 H     197  UNL197      0.2090
   1183 O          20.7157    9.2377   18.5869 O.3   198  UNL198     -0.3982
   1184 C          19.2999    9.2377   18.5869 C.3   198  UNL198      0.0330
   1185 H          18.9346    8.4687   19.2721 H     198  UNL198      0.0521
   1186 H          18.9347    9.0430   17.5756 H     198  UNL198      0.0521
   1187 H          18.9446   10.2163   18.9181 H     198  UNL198      0.0521
   1188 H          21.0014    8.3573   18.2889 H     198  UNL198      0.2090
   1189 O          21.5712   12.1528   -0.2843 O.3   199  UNL199     -0.3982
   1190 C          20.1554   12.1528   -0.2843 C.3   199  UNL199      0.0330
   1191 H          19.7901   11.3838    0.4009 H     199  UNL199      0.0521
   1192 H          19.7902   11.9581   -1.2956 H     199  UNL199      0.0521
   1193 H          19.8001   13.1314    0.0469 H     199  UNL199      0.0521
   1194 H          21.8569   11.2724   -0.5823 H     199  UNL199      0.2090
   1195 O          20.7548   13.4075    2.7969 O.3   200  UNL200     -0.3982
   1196 C          19.3390   13.4075    2.7969 C.3   200  UNL200      0.0330
   1197 H          18.9737   14.0798    3.5772 H     200  UNL200      0.0521
   1198 H          18.9738   12.3931    2.9748 H     200  UNL200      0.0521
   1199 H          18.9837   13.7549    1.8239 H     200  UNL200      0.0521
   1200 H          21.0405   13.0949    3.6722 H     200  UNL200      0.2090
   1201 O          22.7514   13.2287    5.3834 O.3   201  UNL201     -0.3982
   1202 C          21.9602   12.0768    5.6106 C.3   201  UNL201      0.0330
   1203 H          20.9019   12.3457    5.5645 H     201  UNL201      0.0521
   1204 H          22.1983   11.6578    6.5913 H     201  UNL201      0.0521
   1205 H          22.1798   11.3367    4.8375 H     201  UNL201      0.0521
   1206 H          22.5349   13.8668    6.0844 H     201  UNL201      0.2090
   1207 O          21.2689   13.8190    7.9776 O.3   202  UNL202     -0.3982
   1208 C          21.7240   13.6153    9.3028 C.3   202  UNL202      0.0330
   1209 H          20.8882   13.7293    9.9976 H     202  UNL202      0.0521
   1210 H          22.5069   14.3412    9.5356 H     202  UNL202      0.0521
   1211 H          22.1303   12.6048    9.3876 H     202  UNL202      0.0521
   1212 H          20.9143   14.7233    7.9331 H     202  UNL202      0.2090
   1213 O          21.0048   13.5708   12.3095 O.3   203  UNL203     -0.3982
   1214 C          19.5890   13.5708   12.3095 C.3   203  UNL203      0.0330
   1215 H          19.2237   12.8018   12.9947 H     203  UNL203      0.0521
   1216 H          19.2238   13.3761   11.2982 H     203  UNL203      0.0521
   1217 H          19.2337   14.5494   12.6407 H     203  UNL203      0.0521
   1218 H          21.2905   12.6904   12.0115 H     203  UNL203      0.2090
   1219 O          21.4853   12.6286   15.3797 O.3   204  UNL204     -0.3982
   1220 C          20.0695   12.6286   15.3797 C.3   204  UNL204      0.0330
   1221 H          19.7042   11.8267   14.7334 H     204  UNL204      0.0521
   1222 H          19.7043   13.5943   15.0220 H     204  UNL204      0.0521
   1223 H          19.7142   12.4622   16.3994 H     204  UNL204      0.0521
   1224 H          21.7710   12.7784   14.4624 H     204  UNL204      0.2090
   1225 O          23.0946   12.1449   18.4603 O.3   205  UNL205     -0.3982
   1226 C          21.6788   12.1449   18.4603 C.3   205  UNL205      0.0330
   1227 H          21.3135   12.0561   17.4342 H     205  UNL205      0.0521
   1228 H          21.3136   13.0716   18.9096 H     205  UNL205      0.0521
   1229 H          21.3235   11.2939   19.0461 H     205  UNL205      0.0521
   1230 H          23.3803   12.9105   17.9333 H     205  UNL205      0.2090
   1231 O          24.6588   -0.6485   -0.2296 O.3   206  UNL206     -0.3982
   1232 C          23.2430   -0.6485   -0.2296 C.3   206  UNL206      0.0330
   1233 H          22.8777   -1.4175    0.4556 H     206  UNL206      0.0521
   1234 H          22.8778   -0.8432   -1.2409 H     206  UNL206      0.0521
   1235 H          22.8877    0.3301    0.1016 H     206  UNL206      0.0521
   1236 H          24.9445   -1.5289   -0.5276 H     206  UNL206      0.2090
   1237 O          25.5145   -1.4465    2.8727 O.3   207  UNL207     -0.3982
   1238 C          25.6183   -0.0862    3.2513 C.3   207  UNL207      0.0330
   1239 H          24.6507    0.2660    3.6172 H     207  UNL207      0.0521
   1240 H          25.9333    0.5093    2.3909 H     207  UNL207      0.0521
   1241 H          26.3615    0.0055    4.0468 H     207  UNL207      0.0521
   1242 H          24.8484   -1.4964    2.1661 H     207  UNL207      0.2090
   1243 O          24.1353   -0.2639    8.4584 O.3   208  UNL208     -0.3982
   1244 C          22.7195   -0.2639    8.4584 C.3   208  UNL208      0.0330
   1245 H          22.3542    0.2861    9.3292 H     208  UNL208      0.0521
   1246 H          22.3543   -1.2934    8.4848 H     208  UNL208      0.0521
   1247 H          22.3642    0.2231    7.5473 H     208  UNL208      0.0521
   1248 H          24.4210   -0.7021    9.2781 H     208  UNL208      0.2090
   1249 O          23.3667   -0.6992   15.5626 O.3   209  UNL209     -0.3982
   1250 C          24.7065   -0.6992   15.1051 C.3   209  UNL209      0.0330
   1251 H          24.8307   -1.4682   14.3386 H     209  UNL209      0.0521
   1252 H          25.3789   -0.8939   15.9441 H     209  UNL209      0.0521
   1253 H          24.9357    0.2794   14.6768 H     209  UNL209      0.0521
   1254 H          23.1926   -1.5796   15.9370 H     209  UNL209      0.2090
   1255 O          25.3495   -1.3453   18.3810 O.3   210  UNL210     -0.3982
   1256 C          26.2190   -0.2418   18.5557 C.3   210  UNL210      0.0330
   1257 H          27.2425   -0.6007   18.6898 H     210  UNL210      0.0521
   1258 H          25.9063    0.3348   19.4297 H     210  UNL210      0.0521
   1259 H          26.1711    0.3924   17.6674 H     210  UNL210      0.0521
   1260 H          25.4134   -1.8894   19.1844 H     210  UNL210      0.2090
   1261 O          23.9443    3.1319    0.1993 O.3   211  UNL211     -0.3982
   1262 C          23.9064    2.9031   -1.1974 C.3   211  UNL211      0.0330
   1263 H          22.9409    3.2265   -1.5944 H     211  UNL211      0.0521
   1264 H          24.0568    1.8394   -1.3974 H     211  UNL211      0.0521
   1265 H          24.7045    3.4775   -1.6733 H     211  UNL211      0.0521
   1266 H          23.2254    2.6095    0.5940 H     211  UNL211      0.2090
   1267 O          23.5729    3.5577    2.8074 O.3   212  UNL212     -0.3982
   1268 C          23.3410    2.1610    2.8074 C.3   212  UNL212      0.0330
   1269 H          23.2273    1.8096    3.8359 H     212  UNL212      0.0521
   1270 H          24.1801    1.6515    2.3276 H     212  UNL212      0.0521
   1271 H          22.4245    1.9530    2.2502 H     212  UNL212      0.0521
   1272 H          24.3918    3.7113    3.3087 H     212  UNL212      0.2090
   1273 O          23.1093    2.6987    6.0839 O.3   213  UNL213     -0.3982
   1274 C          24.4491    2.3367    6.3638 C.3   213  UNL213      0.0330
   1275 H          25.0433    3.2381    6.5329 H     213  UNL213      0.0521
   1276 H          24.8576    1.7705    5.5232 H     213  UNL213      0.0521
   1277 H          24.4690    1.7158    7.2625 H     213  UNL213      0.0521
   1278 H          23.1234    3.2485    5.2820 H     213  UNL213      0.2090
   1279 O          26.6589    2.9967    9.2263 O.3   214  UNL214     -0.3982
   1280 C          25.8676    1.9317    9.7204 C.3   214  UNL214      0.0330
   1281 H          25.5710    1.2825    8.8929 H     214  UNL214      0.0521
   1282 H          24.9816    2.3349   10.2170 H     214  UNL214      0.0521
   1283 H          26.4554    1.3563   10.4395 H     214  UNL214      0.0521
   1284 H          26.1111    3.4889    8.5913 H     214  UNL214      0.2090
   1285 O          27.1236    3.0737   12.5332 O.3   215  UNL215     -0.3982
   1286 C          25.7078    3.0737   12.5332 C.3   215  UNL215      0.0330
   1287 H          25.3425    2.0496   12.4229 H     215  UNL215      0.0521
   1288 H          25.3426    3.6928   11.7102 H     215  UNL215      0.0521
   1289 H          25.3525    3.4849   13.4810 H     215  UNL215      0.0521
   1290 H          27.4093    2.7038   11.6805 H     215  UNL215      0.2090
   1291 O          26.2013    3.4386   16.1737 O.3   216  UNL216     -0.3982
   1292 C          25.6993    2.2098   15.6814 C.3   216  UNL216      0.0330
   1293 H          26.5176    1.6267   15.2518 H     216  UNL216      0.0521
   1294 H          24.9383    2.4044   14.9217 H     216  UNL216      0.0521
   1295 H          25.2519    1.6522   16.5075 H     216  UNL216      0.0521
   1296 H          26.5917    3.9109   15.4187 H     216  UNL216      0.2090
   1297 O          23.3204    2.5184   19.6128 O.3   217  UNL217     -0.3982
   1298 C          24.3724    2.7168   18.6863 C.3   217  UNL217      0.0330
   1299 H          24.9201    1.7810   18.5496 H     217  UNL217      0.0521
   1300 H          25.0447    3.4939   19.0580 H     217  UNL217      0.0521
   1301 H          23.9487    3.0316   17.7297 H     217  UNL217      0.0521
   1302 H          23.7268    2.2400   20.4512 H     217  UNL217      0.2090
   1303 O          25.3775    5.7795   -0.1671 O.3   218  UNL218     -0.3982
   1304 C          23.9617    5.7795   -0.1671 C.3   218  UNL218      0.0330
   1305 H          23.5964    5.0105    0.5181 H     218  UNL218      0.0521
   1306 H          23.5965    5.5848   -1.1784 H     218  UNL218      0.0521
   1307 H          23.6064    6.7581    0.1641 H     218  UNL218      0.0521
   1308 H          25.6632    4.8991   -0.4651 H     218  UNL218      0.2090
   1309 O          26.4486    7.1944    2.0418 O.3   219  UNL219     -0.3982
   1310 C          25.7718    6.5815    3.1238 C.3   219  UNL219      0.0330
   1311 H          25.5181    5.5518    2.8599 H     219  UNL219      0.0521
   1312 H          24.8637    7.1446    3.3526 H     219  UNL219      0.0521
   1313 H          26.4271    6.5804    3.9980 H     219  UNL219      0.0521
   1314 H          25.8427    7.1808    1.2813 H     219  UNL219      0.2090
   1315 O          25.6509    5.5575    5.5780 O.3   220  UNL220     -0.3982
   1316 C          24.2351    5.5575    5.5780 C.3   220  UNL220      0.0330
   1317 H          23.8698    6.5067    5.1781 H     220  UNL220      0.0521
   1318 H          23.8699    5.4149    6.5979 H     220  UNL220      0.0521
   1319 H          23.8798    4.7385    4.9483 H     220  UNL220      0.0521
   1320 H          25.9366    6.2944    6.1445 H     220  UNL220      0.2090
   1321 O          23.1829    5.7325    8.6988 O.3   221  UNL221     -0.3982
   1322 C          24.5227    5.3705    8.9787 C.3   221  UNL221      0.0330
   1323 H          24.5422    4.6476    9.7980 H     221  UNL221      0.0521
   1324 H          25.0925    6.2621    9.2515 H     221  UNL221      0.0521
   1325 H          24.9624    4.9187    8.0865 H     221  UNL221      0.0521
   1326 H          22.8194    6.1304    9.5082 H     221  UNL221      0.2090
   1327 O          25.1978    5.9858   12.0907 O.3   222  UNL222     -0.3982
   1328 C          23.7820    5.9858   12.0907 C.3   222  UNL222      0.0330
   1329 H          23.4167    5.1839   11.4443 H     222  UNL222      0.0521
   1330 H          23.4168    6.9515   11.7329 H     222  UNL222      0.0521
   1331 H          23.4267    5.8193   13.1103 H     222  UNL222      0.0521
   1332 H          25.4835    6.1355   11.1733 H     222  UNL222      0.2090
   1333 O          25.1686    5.5258   15.1107 O.3   223  UNL223     -0.3982
   1334 C          24.9367    6.9225   15.1107 C.3   223  UNL223      0.0330
   1335 H          25.4194    7.3729   15.9816 H     223  UNL223      0.0521
   1336 H          23.8613    7.1141   15.1372 H     223  UNL223      0.0521
   1337 H          25.3590    7.3527   14.1996 H     223  UNL223      0.0521
   1338 H          24.7832    5.1722   15.9304 H     223  UNL223      0.2090
   1339 O          25.4127    5.7735   18.3061 O.3   224  UNL224     -0.3982
   1340 C          23.9969    5.7735   18.3061 C.3   224  UNL224      0.0330
   1341 H          23.6316    6.3235   19.1769 H     224  UNL224      0.0521
   1342 H          23.6317    4.7439   18.3325 H     224  UNL224      0.0521
   1343 H          23.6416    6.2605   17.3949 H     224  UNL224      0.0521
   1344 H          25.6984    5.3353   19.1258 H     224  UNL224      0.2090
   1345 O          26.1548    8.6123   -0.5437 O.3   225  UNL225     -0.3982
   1346 C          24.7390    8.6123   -0.5437 C.3   225  UNL225      0.0330
   1347 H          24.3737    9.6177   -0.7674 H     225  UNL225      0.0521
   1348 H          24.3738    8.2897    0.4343 H     225  UNL225      0.0521
   1349 H          24.3837    7.9191   -1.3097 H     225  UNL225      0.0521
   1350 H          26.4405    9.2360    0.1455 H     225  UNL225      0.2090
   1351 O          23.2571    9.9250    2.6246 O.3   226  UNL226     -0.3982
   1352 C          24.5969    9.5630    2.9044 C.3   226  UNL226      0.0330
   1353 H          24.6164    8.8401    3.7238 H     226  UNL226      0.0521
   1354 H          25.1667   10.4546    3.1773 H     226  UNL226      0.0521
   1355 H          25.0366    9.1112    2.0122 H     226  UNL226      0.0521
   1356 H          22.8936   10.3229    3.4340 H     226  UNL226      0.2090
   1357 O          25.2877    8.9673    6.2117 O.3   227  UNL227     -0.3982
   1358 C          23.8719    8.9673    6.2117 C.3   227  UNL227      0.0330
   1359 H          23.5066    8.1654    5.5653 H     227  UNL227      0.0521
   1360 H          23.5067    9.9331    5.8540 H     227  UNL227      0.0521
   1361 H          23.5166    8.8009    7.2314 H     227  UNL227      0.0521
   1362 H          25.5734    9.1171    5.2944 H     227  UNL227      0.2090
   1363 O          25.1474    8.4099    9.2817 O.3   228  UNL228     -0.3982
   1364 C          25.8228    9.5618    8.8110 C.3   228  UNL228      0.0330
   1365 H          26.2304   10.1183    9.6587 H     228  UNL228      0.0521
   1366 H          25.1264   10.1898    8.2501 H     228  UNL228      0.0521
   1367 H          26.6396    9.2516    8.1551 H     228  UNL228      0.0521
   1368 H          24.4288    8.7167    9.8605 H     228  UNL228      0.2090
   1369 O          22.6482    9.6869   11.8312 O.3   229  UNL229     -0.3982
   1370 C          23.9880    9.6869   12.2887 C.3   229  UNL229      0.0330
   1371 H          24.5552    8.9179   11.7584 H     229  UNL229      0.0521
   1372 H          24.0068    9.4922   13.3638 H     229  UNL229      0.0521
   1373 H          24.4313   10.6655   12.0901 H     229  UNL229      0.0521
   1374 H          22.2815    8.8065   12.0208 H     229  UNL229      0.2090
   1375 O          25.4974   10.4176   14.6009 O.3   230  UNL230     -0.3982
   1376 C          25.0092   10.2281   15.9163 C.3   230  UNL230      0.0330
   1377 H          25.7190   10.6480   16.6334 H     230  UNL230      0.0521
   1378 H          24.8729    9.1605   16.1049 H     230  UNL230      0.0521
   1379 H          24.0487   10.7390   16.0159 H     230  UNL230      0.0521
   1380 H          26.3498    9.9533   14.5428 H     230  UNL230      0.2090
   1381 O          25.0220    9.0072   18.5087 O.3   231  UNL231     -0.3982
   1382 C          23.6062    9.0072   18.5087 C.3   231  UNL231      0.0330
   1383 H          23.2409    8.2382   19.1939 H     231  UNL231      0.0521
   1384 H          23.2410    8.8125   17.4974 H     231  UNL231      0.0521
   1385 H          23.2509    9.9858   18.8399 H     231  UNL231      0.0521
   1386 H          25.3077    8.1268   18.2107 H     231  UNL231      0.2090
   1387 O          25.6119   12.0200   -0.0109 O.3   232  UNL232     -0.3982
   1388 C          24.1961   12.0200   -0.0109 C.3   232  UNL232      0.0330
   1389 H          23.8308   11.2510    0.6743 H     232  UNL232      0.0521
   1390 H          23.8309   11.8253   -1.0222 H     232  UNL232      0.0521
   1391 H          23.8408   12.9986    0.3203 H     232  UNL232      0.0521
   1392 H          25.8976   11.1396   -0.3089 H     232  UNL232      0.2090
   1393 O          24.0036   12.4087    2.9402 O.3   233  UNL233     -0.3982
   1394 C          23.9656   13.8240    2.9433 C.3   233  UNL233      0.0330
   1395 H          24.7943   14.2129    2.3464 H     233  UNL233      0.0521
   1396 H          24.0397   14.1890    3.9705 H     233  UNL233      0.0521
   1397 H          23.0195   14.1549    2.5086 H     233  UNL233      0.0521
   1398 H          24.8539   12.1448    3.3313 H     233  UNL233      0.2090
   1399 O          25.4159   13.3014    5.6881 O.3   234  UNL234     -0.3982
   1400 C          25.4945   11.9061    5.9153 C.3   234  UNL234      0.0330
   1401 H          24.4928   11.4715    5.8692 H     234  UNL234      0.0521
   1402 H          25.9391   11.7203    6.8959 H     234  UNL234      0.0521
   1403 H          26.1209   11.4550    5.1422 H     234  UNL234      0.0521
   1404 H          24.8542   13.6738    6.3891 H     234  UNL234      0.2090
   1405 O          24.6791   12.3638    9.0556 O.3   235  UNL235     -0.3982
   1406 C          26.0189   12.8214    9.0556 C.3   235  UNL235      0.0330
   1407 H          26.1160   13.6671    9.7408 H     235  UNL235      0.0521
   1408 H          26.3016   13.1236    8.0443 H     235  UNL235      0.0521
   1409 H          26.6714   12.0101    9.3868 H     235  UNL235      0.0521
   1410 H          24.1242   13.1046    8.7576 H     235  UNL235      0.2090
   1411 O          25.1002   13.2466   11.9657 O.3   236  UNL236     -0.3982
   1412 C          23.6844   13.2466   11.9657 C.3   236  UNL236      0.0330
   1413 H          23.3191   12.4776   12.6509 H     236  UNL236      0.0521
   1414 H          23.3192   13.0519   10.9544 H     236  UNL236      0.0521
   1415 H          23.3291   14.2252   12.2969 H     236  UNL236      0.0521
   1416 H          25.3859   12.3662   11.6677 H     236  UNL236      0.2090
   1417 O          25.6470   12.8786   15.0399 O.3   237  UNL237     -0.3982
   1418 C          24.2312   12.8786   15.0399 C.3   237  UNL237      0.0330
   1419 H          23.8659   12.0767   14.3935 H     237  UNL237      0.0521
   1420 H          23.8660   13.8443   14.6822 H     237  UNL237      0.0521
   1421 H          23.8759   12.7122   16.0595 H     237  UNL237      0.0521
   1422 H          25.9327   13.0284   14.1226 H     237  UNL237      0.2090
   1423 O          24.9065   13.2482   19.5129 O.3   238  UNL238     -0.3982
   1424 C          26.0317   13.3681   18.6620 C.3   238  UNL238      0.0330
   1425 H          26.5963   14.2654   18.9273 H     238  UNL238      0.0521
   1426 H          25.6991   13.4279   17.6229 H     238  UNL238      0.0521
   1427 H          26.6681   12.4892   18.7886 H     238  UNL238      0.0521
   1428 H          24.3609   14.0418   19.3786 H     238  UNL238      0.2090
   1429 O          28.9768    0.1211   -0.2609 O.3   239  UNL239     -0.3982
   1430 C          27.5610    0.1211   -0.2609 C.3   239  UNL239      0.0330
   1431 H          27.1957   -0.6479    0.4243 H     239  UNL239      0.0521
   1432 H          27.1958   -0.0736   -1.2722 H     239  UNL239      0.0521
   1433 H          27.2057    1.0997    0.0703 H     239  UNL239      0.0521
   1434 H          29.2625   -0.7593   -0.5589 H     239  UNL239      0.2090
   1435 O          29.8632   -1.3546    2.3026 O.3   240  UNL240     -0.3982
   1436 C          29.5665   -0.5571    3.4342 C.3   240  UNL240      0.0330
   1437 H          28.6822   -0.9539    3.9390 H     240  UNL240      0.0521
   1438 H          29.3869    0.4733    3.1178 H     240  UNL240      0.0521
   1439 H          30.4169   -0.5825    4.1196 H     240  UNL240      0.0521
   1440 H          29.0910   -1.3126    1.7131 H     240  UNL240      0.2090
   1441 O          28.8557   -0.6584    8.6263 O.3   241  UNL241     -0.3982
   1442 C          27.4399   -0.6584    8.6263 C.3   241  UNL241      0.0330
   1443 H          27.0746   -0.1084    9.4972 H     241  UNL241      0.0521
   1444 H          27.0747   -1.6880    8.6528 H     241  UNL241      0.0521
   1445 H          27.0846   -0.1714    7.7152 H     241  UNL241      0.0521
   1446 H          29.1414   -1.0966    9.4460 H     241  UNL241      0.2090
   1447 O          29.1955   -0.9375   15.4072 O.3   242  UNL242     -0.3982
   1448 C          27.7797   -0.9375   15.4072 C.3   242  UNL242      0.0330
   1449 H          27.4144   -1.7065   16.0924 H     242  UNL242      0.0521
   1450 H          27.4145   -1.1322   14.3959 H     242  UNL242      0.0521
   1451 H          27.4244    0.0411   15.7384 H     242  UNL242      0.0521
   1452 H          29.4812   -1.8179   15.1092 H     242  UNL242      0.2090
   1453 O          30.7425   -0.6862   17.7870 O.3   243  UNL243     -0.3982
   1454 C          29.9512   -0.3731   18.9186 C.3   243  UNL243      0.0330
   1455 H          29.6546   -1.2958   19.4235 H     243  UNL243      0.0521
   1456 H          29.0653    0.1827   18.6022 H     243  UNL243      0.0521
   1457 H          30.5390    0.2419   19.6040 H     243  UNL243      0.0521
   1458 H          30.1947   -1.2320   17.1975 H     243  UNL243      0.2090
   1459 O          28.3361    2.9866   -1.0774 O.3   244  UNL244     -0.3982
   1460 C          26.9203    2.9866   -1.0774 C.3   244  UNL244      0.0330
   1461 H          26.5550    3.3721   -0.1223 H     244  UNL244      0.0521
   1462 H          26.5551    1.9690   -1.2355 H     244  UNL244      0.0521
   1463 H          26.5650    3.6287   -1.8868 H     244  UNL244      0.0521
   1464 H          28.6218    2.4090   -0.3493 H     244  UNL244      0.2090
   1465 O          26.4618    2.6884    2.1871 O.3   245  UNL245     -0.3982
   1466 C          27.8016    2.3264    2.4669 C.3   245  UNL245      0.0330
   1467 H          27.8212    1.6036    3.2863 H     245  UNL245      0.0521
   1468 H          28.3714    3.2180    2.7398 H     245  UNL245      0.0521
   1469 H          28.2414    1.8746    1.5747 H     245  UNL245      0.0521
   1470 H          26.0983    3.0863    2.9965 H     245  UNL245      0.2090
   1471 O          28.9846    2.3946    5.9406 O.3   246  UNL246     -0.3982
   1472 C          27.5688    2.3946    5.9406 C.3   246  UNL246      0.0330
   1473 H          27.2035    2.7323    4.9676 H     246  UNL246      0.0521
   1474 H          27.2036    3.0573    6.7289 H     246  UNL246      0.0521
   1475 H          27.2135    1.3786    6.1281 H     246  UNL246      0.0521
   1476 H          29.2703    3.3086    5.7720 H     246  UNL246      0.2090
   1477 O          29.8354    3.3577    8.3644 O.3   247  UNL247     -0.3982
   1478 C          30.2243    2.0000    8.4638 C.3   247  UNL247      0.0330
   1479 H          29.3521    1.3584    8.3160 H     247  UNL247      0.0521
   1480 H          30.6623    1.8166    9.4479 H     247  UNL247      0.0521
   1481 H          30.9666    1.7856    7.6913 H     247  UNL247      0.0521
   1482 H          29.1769    3.5180    9.0618 H     247  UNL247      0.2090
   1483 O          31.0822    2.4237   11.9135 O.3   248  UNL248     -0.3982
   1484 C          29.6664    2.4237   11.9135 C.3   248  UNL248      0.0330
   1485 H          29.3011    1.7258   11.1560 H     248  UNL248      0.0521
   1486 H          29.3012    3.4316   11.7021 H     248  UNL248      0.0521
   1487 H          29.3111    2.1088   12.8975 H     248  UNL248      0.0521
   1488 H          31.3679    2.7070   11.0283 H     248  UNL248      0.2090
   1489 O          30.4768    1.9706   15.3940 O.3   249  UNL249     -0.3982
   1490 C          29.0610    1.9706   15.3940 C.3   249  UNL249      0.0330
   1491 H          28.6957    1.2727   14.6365 H     249  UNL249      0.0521
   1492 H          28.6958    2.9785   15.1825 H     249  UNL249      0.0521
   1493 H          28.7057    1.6557   16.3780 H     249  UNL249      0.0521
   1494 H          30.7625    2.2539   14.5088 H     249  UNL249      0.2090
   1495 O          29.0275    2.4322   18.7037 O.3   250  UNL250     -0.3982
   1496 C          27.6117    2.4322   18.7037 C.3   250  UNL250      0.0330
   1497 H          27.2464    2.1642   17.7092 H     250  UNL250      0.0521
   1498 H          27.2465    3.4235   18.9828 H     250  UNL250      0.0521
   1499 H          27.2564    1.6976   19.4302 H     250  UNL250      0.0521
   1500 H          29.3132    3.0931   18.0502 H     250  UNL250      0.2090
   1501 O          29.4533    5.9102   -0.4167 O.3   251  UNL251     -0.3982
   1502 C          28.0375    5.9102   -0.4167 C.3   251  UNL251      0.0330
   1503 H          27.6722    6.4602    0.4542 H     251  UNL251      0.0521
   1504 H          27.6723    4.8807   -0.3902 H     251  UNL251      0.0521
   1505 H          27.6822    6.3972   -1.3278 H     251  UNL251      0.0521
   1506 H          29.7390    5.4720    0.4030 H     251  UNL251      0.2090
   1507 O          30.6275    6.6859    2.2501 O.3   252  UNL252     -0.3982
   1508 C          29.3135    6.4484    2.7209 C.3   252  UNL252      0.0330
   1509 H          28.7469    5.9024    1.9625 H     252  UNL252      0.0521
   1510 H          28.8260    7.4016    2.9393 H     252  UNL252      0.0521
   1511 H          29.3659    5.8508    3.6339 H     252  UNL252      0.0521
   1512 H          30.5488    7.2179    1.4399 H     252  UNL252      0.2090
   1513 O          29.6838    5.4325    5.5389 O.3   253  UNL253     -0.3982
   1514 C          28.2680    5.4325    5.5389 C.3   253  UNL253      0.0330
   1515 H          27.9027    6.3817    5.1390 H     253  UNL253      0.0521
   1516 H          27.9028    5.2899    6.5589 H     253  UNL253      0.0521
   1517 H          27.9127    4.6135    4.9092 H     253  UNL253      0.0521
   1518 H          29.9695    6.1694    6.1055 H     253  UNL253      0.2090
   1519 O          27.9259    6.9179    9.1364 O.3   254  UNL254     -0.3982
   1520 C          27.7883    5.5368    8.8565 C.3   254  UNL254      0.0330
   1521 H          26.8297    5.3578    8.3631 H     254  UNL254      0.0521
   1522 H          27.8425    4.9682    9.7881 H     254  UNL254      0.0521
   1523 H          28.5999    5.2258    8.1947 H     254  UNL254      0.0521
   1524 H          27.1924    7.1645    9.7252 H     254  UNL254      0.2090
   1525 O          29.2307    5.7084   12.3094 O.3   255  UNL255     -0.3982
   1526 C          27.8149    5.7084   12.3094 C.3   255  UNL255      0.0330
   1527 H          27.4496    4.9065   11.6630 H     255  UNL255      0.0521
   1528 H          27.4497    6.6742   11.9517 H     255  UNL255      0.0521
   1529 H          27.4596    5.5420   13.3290 H     255  UNL255      0.0521
   1530 H          29.5164    5.8582   11.3921 H     255  UNL255      0.2090
   1531 O          30.8752    5.3459   15.4931 O.3   256  UNL256     -0.3982
   1532 C          29.4594    5.3459   15.4931 C.3   256  UNL256      0.0330
   1533 H          29.0941    4.5769   16.1783 H     256  UNL256      0.0521
   1534 H          29.0942    5.1512   14.4818 H     256  UNL256      0.0521
   1535 H          29.1041    6.3245   15.8243 H     256  UNL256      0.0521
   1536 H          31.1609    4.4655   15.1951 H     256  UNL256      0.2090
   1537 O          29.7502    5.8108   18.4267 O.3   257  UNL257     -0.3982
   1538 C          28.3344    5.8108   18.4267 C.3   257  UNL257      0.0330
   1539 H          27.9691    5.0418   19.1119 H     257  UNL257      0.0521
   1540 H          27.9692    5.6161   17.4154 H     257  UNL257      0.0521
   1541 H          27.9791    6.7894   18.7579 H     257  UNL257      0.0521
   1542 H          30.0359    4.9304   18.1287 H     257  UNL257      0.2090
   1543 O          30.3244    8.6280   -0.6570 O.3   258  UNL258     -0.3982
   1544 C          28.9086    8.6280   -0.6570 C.3   258  UNL258      0.0330
   1545 H          28.5433    9.6333   -0.8807 H     258  UNL258      0.0521
   1546 H          28.5434    8.3053    0.3210 H     258  UNL258      0.0521
   1547 H          28.5533    7.9347   -1.4230 H     258  UNL258      0.0521
   1548 H          30.6101    9.2516    0.0322 H     258  UNL258      0.2090
   1549 O          29.0158    9.4798    2.8776 O.3   259  UNL259     -0.3982
   1550 C          27.6000    9.4798    2.8776 C.3   259  UNL259      0.0330
   1551 H          27.2347   10.4890    3.0836 H     259  UNL259      0.0521
   1552 H          27.2348    8.7861    3.6388 H     259  UNL259      0.0521
   1553 H          27.2447    9.1595    1.8953 H     259  UNL259      0.0521
   1554 H          29.3015    9.7679    3.7612 H     259  UNL259      0.2090
   1555 O          27.8462    8.5153    5.6560 O.3   260  UNL260     -0.3982
   1556 C          27.9561    9.9120    5.8603 C.3   260  UNL260      0.0330
   1557 H          28.9473   10.1464    6.2563 H     260  UNL260      0.0521
   1558 H          27.1849   10.2404    6.5613 H     260  UNL260      0.0521
   1559 H          27.8179   10.4228    4.9044 H     260  UNL260      0.0521
   1560 H          27.9731    8.0893    6.5208 H     260  UNL260      0.2090
   1561 O          29.4869    8.3123    8.2950 O.3   261  UNL261     -0.3982
   1562 C          29.2645    9.4641    9.0877 C.3   261  UNL261      0.0330
   1563 H          28.4112   10.0206    8.6921 H     261  UNL261      0.0521
   1564 H          30.1587   10.0922    9.0782 H     261  UNL261      0.0521
   1565 H          29.0507    9.1539   10.1132 H     261  UNL261      0.0521
   1566 H          29.6739    8.6190    7.3915 H     261  UNL261      0.2090
   1567 O          28.3557    9.0619   12.2157 O.3   262  UNL262     -0.3982
   1568 C          26.9399    9.0619   12.2157 C.3   262  UNL262      0.0330
   1569 H          26.5746    8.2929   12.9009 H     262  UNL262      0.0521
   1570 H          26.5747    8.8672   11.2044 H     262  UNL262      0.0521
   1571 H          26.5846   10.0405   12.5469 H     262  UNL262      0.0521
   1572 H          28.6414    8.1815   11.9177 H     262  UNL262      0.2090
   1573 O          28.1827    9.2842   15.4750 O.3   263  UNL263     -0.3982
   1574 C          29.4250    8.7409   15.0675 C.3   263  UNL263      0.0330
   1575 H          29.9300    8.2973   15.9292 H     263  UNL263      0.0521
   1576 H          30.0446    9.5303   14.6351 H     263  UNL263      0.0521
   1577 H          29.2456    7.9686   14.3158 H     263  UNL263      0.0521
   1578 H          28.3739    9.9659   16.1415 H     263  UNL263      0.2090
   1579 O          29.0158    9.2377   18.4931 O.3   264  UNL264     -0.3982
   1580 C          27.6000    9.2377   18.4931 C.3   264  UNL264      0.0330
   1581 H          27.2347    8.4687   19.1783 H     264  UNL264      0.0521
   1582 H          27.2348    9.0430   17.4818 H     264  UNL264      0.0521
   1583 H          27.2447   10.2163   18.8243 H     264  UNL264      0.0521
   1584 H          29.3015    8.3573   18.1951 H     264  UNL264      0.2090
   1585 O          29.6682   12.0357   -0.2765 O.3   265  UNL265     -0.3982
   1586 C          28.2524   12.0357   -0.2765 C.3   265  UNL265      0.0330
   1587 H          27.8871   11.2667    0.4087 H     265  UNL265      0.0521
   1588 H          27.8872   11.8410   -1.2878 H     265  UNL265      0.0521
   1589 H          27.8971   13.0143    0.0547 H     265  UNL265      0.0521
   1590 H          29.9539   11.1553   -0.5745 H     265  UNL265      0.2090
   1591 O          27.3056   12.7464    2.7339 O.3   266  UNL266     -0.3982
   1592 C          28.6454   12.3844    3.0138 C.3   266  UNL266      0.0330
   1593 H          28.6649   11.6616    3.8332 H     266  UNL266      0.0521
   1594 H          29.2152   13.2760    3.2867 H     266  UNL266      0.0521
   1595 H          29.0851   11.9326    2.1216 H     266  UNL266      0.0521
   1596 H          26.9421   13.1443    3.5433 H     266  UNL266      0.2090
   1597 O          30.9578   13.0998    5.6139 O.3   267  UNL267     -0.3982
   1598 C          30.1665   11.9479    5.8411 C.3   267  UNL267      0.0330
   1599 H          29.1083   12.2168    5.7950 H     267  UNL267      0.0521
   1600 H          30.4046   11.5289    6.8217 H     267  UNL267      0.0521
   1601 H          30.3861   11.2078    5.0680 H     267  UNL267      0.0521
   1602 H          30.7412   13.7379    6.3148 H     267  UNL267      0.2090
   1603 O          30.4455   12.6685    9.0282 O.3   268  UNL268     -0.3982
   1604 C          29.0297   12.6685    9.0282 C.3   268  UNL268      0.0330
   1605 H          28.6644   11.8995    9.7134 H     268  UNL268      0.0521
   1606 H          28.6645   12.4738    8.0169 H     268  UNL268      0.0521
   1607 H          28.6744   13.6471    9.3594 H     268  UNL268      0.0521
   1608 H          30.7312   11.7881    8.7302 H     268  UNL268      0.2090
   1609 O          29.1018   12.6021   12.1962 O.3   269  UNL269     -0.3982
   1610 C          27.6860   12.6021   12.1962 C.3   269  UNL269      0.0330
   1611 H          27.3207   11.8331   12.8814 H     269  UNL269      0.0521
   1612 H          27.3208   12.4074   11.1849 H     269  UNL269      0.0521
   1613 H          27.3307   13.5807   12.5274 H     269  UNL269      0.0521
   1614 H          29.3875   11.7217   11.8982 H     269  UNL269      0.2090
   1615 O          29.7033   12.0715   15.2108 O.3   270  UNL270     -0.3982
   1616 C          28.2875   12.0715   15.2108 C.3   270  UNL270      0.0330
   1617 H          27.9222   13.0206   14.8109 H     270  UNL270      0.0521
   1618 H          27.9223   11.9289   16.2308 H     270  UNL270      0.0521
   1619 H          27.9322   11.2524   14.5811 H     270  UNL270      0.0521
   1620 H          29.9890   12.8083   15.7774 H     270  UNL270      0.2090
   1621 O          29.5122   13.3163   18.5267 O.3   271  UNL271     -0.3982
   1622 C          29.2803   11.9197   18.5267 C.3   271  UNL271      0.0330
   1623 H          29.3080   11.5448   17.5006 H     271  UNL271      0.0521
   1624 H          28.3063   11.7112   18.9760 H     271  UNL271      0.0521
   1625 H          30.0616   11.4298   19.1125 H     271  UNL271      0.0521
   1626 H          28.8038   13.7236   17.9997 H     271  UNL271      0.2090
   1627 O          33.3768   -1.0789   -0.2375 O.3   272  UNL272     -0.3982
   1628 C          31.9610   -1.0789   -0.2375 C.3   272  UNL272      0.0330
   1629 H          31.5957   -1.8809   -0.8839 H     272  UNL272      0.0521
   1630 H          31.5958   -0.1132   -0.5952 H     272  UNL272      0.0521
   1631 H          31.6057   -1.2454    0.7821 H     272  UNL272      0.0521
   1632 H          33.6625   -0.9292   -1.1548 H     272  UNL272      0.2090
   1633 O          33.4784   -0.4553    8.4545 O.3   273  UNL273     -0.3982
   1634 C          32.0626   -0.4553    8.4545 C.3   273  UNL273      0.0330
   1635 H          31.6973    0.0947    9.3253 H     273  UNL273      0.0521
   1636 H          31.6974   -1.4848    8.4809 H     273  UNL273      0.0521
   1637 H          31.7073    0.0317    7.5433 H     273  UNL273      0.0521
   1638 H          33.7641   -0.8935    9.2742 H     273  UNL273      0.2090
   1639 O          32.3495   -0.9891   11.8211 O.3   274  UNL274     -0.3982
   1640 C          30.9337   -0.9891   11.8211 C.3   274  UNL274      0.0330
   1641 H          30.5684   -1.7910   11.1747 H     274  UNL274      0.0521
   1642 H          30.5685   -0.0234   11.4634 H     274  UNL274      0.0521
   1643 H          30.5784   -1.1555   12.8408 H     274  UNL274      0.0521
   1644 H          32.6352   -0.8393   10.9038 H     274  UNL274      0.2090
   1645 O          33.6971   -0.6141   14.8993 O.3   275  UNL275     -0.3982
   1646 C          32.2813   -0.6141   14.8993 C.3   275  UNL275      0.0330
   1647 H          31.9160   -1.4160   14.2529 H     275  UNL275      0.0521
   1648 H          31.9161    0.3516   14.5415 H     275  UNL275      0.0521
   1649 H          31.9260   -0.7805   15.9189 H     275  UNL275      0.0521
   1650 H          33.9828   -0.4643   13.9819 H     275  UNL275      0.2090
   1651 O          33.7022    2.5054   -0.8202 O.3   276  UNL276     -0.3982
   1652 C          32.4902    2.2766   -0.1249 C.3   276  UNL276      0.0330
   1653 H          32.6269    1.4602    0.5886 H     276  UNL276      0.0521
   1654 H          31.7022    2.0233   -0.8382 H     276  UNL276      0.0521
   1655 H          32.2125    3.1857    0.4137 H     276  UNL276      0.0521
   1656 H          33.9229    1.6821   -1.2881 H     276  UNL276      0.2090
   1657 O          32.1620    2.6570    2.7566 O.3   277  UNL277     -0.3982
   1658 C          30.7462    2.6570    2.7566 C.3   277  UNL277      0.0330
   1659 H          30.3809    2.7116    3.7851 H     277  UNL277      0.0521
   1660 H          30.3810    1.7457    2.2768 H     277  UNL277      0.0521
   1661 H          30.3909    3.5269    2.1994 H     277  UNL277      0.0521
   1662 H          32.4477    1.8742    3.2579 H     277  UNL277      0.2090
   1663 O          33.0598    1.3686    5.8798 O.3   278  UNL278     -0.3982
   1664 C          32.8278    2.7653    5.8798 C.3   278  UNL278      0.0330
   1665 H          32.0094    2.9997    6.5650 H     278  UNL278      0.0521
   1666 H          32.5760    3.0936    4.8685 H     278  UNL278      0.0521
   1667 H          33.7350    3.2761    6.2110 H     278  UNL278      0.0521
   1668 H          32.2381    0.9425    5.5818 H     278  UNL278      0.2090
   1669 O          34.2480    2.0962   14.7714 O.3   279  UNL279     -0.3982
   1670 C          33.4567    2.4092   15.9030 C.3   279  UNL279      0.0330
   1671 H          33.1601    1.4865   16.4078 H     279  UNL279      0.0521
   1672 H          32.5708    2.9651   15.5866 H     279  UNL279      0.0521
   1673 H          34.0445    3.0243   16.5884 H     279  UNL279      0.0521
   1674 H          33.7002    1.5504   14.1819 H     279  UNL279      0.2090
   1675 O          33.2245    2.5370   18.5665 O.3   280  UNL280     -0.3982
   1676 C          31.8087    2.5370   18.5665 C.3   280  UNL280      0.0330
   1677 H          31.4434    3.2093   19.3468 H     280  UNL280      0.0521
   1678 H          31.4435    1.5226   18.7444 H     280  UNL280      0.0521
   1679 H          31.4534    2.8844   17.5935 H     280  UNL280      0.0521
   1680 H          33.5102    2.2244   19.4418 H     280  UNL280      0.2090
   1681 O          33.6542    5.7358   -0.1438 O.3   281  UNL281     -0.3982
   1682 C          32.2384    5.7358   -0.1438 C.3   281  UNL281      0.0330
   1683 H          31.8731    4.9339   -0.7901 H     281  UNL281      0.0521
   1684 H          31.8732    6.7015   -0.5015 H     281  UNL281      0.0521
   1685 H          31.8831    5.5693    0.8759 H     281  UNL281      0.0521
   1686 H          33.9399    5.8855   -1.0611 H     281  UNL281      0.2090
   1687 O          33.7870    5.9180    5.7240 O.3   282  UNL282     -0.3982
   1688 C          32.3712    5.9180    5.7240 C.3   282  UNL282      0.0330
   1689 H          32.0059    6.4680    6.5948 H     282  UNL282      0.0521
   1690 H          32.0060    4.8885    5.7504 H     282  UNL282      0.0521
   1691 H          32.0159    6.4050    4.8129 H     282  UNL282      0.0521
   1692 H          34.0727    5.4798    6.5437 H     282  UNL282      0.2090
   1693 O          32.6307    5.7482    8.8815 O.3   283  UNL283     -0.3982
   1694 C          31.2149    5.7482    8.8815 C.3   283  UNL283      0.0330
   1695 H          30.8496    6.7574    9.0875 H     283  UNL283      0.0521
   1696 H          30.8497    5.0545    9.6427 H     283  UNL283      0.0521
   1697 H          30.8596    5.4279    7.8993 H     283  UNL283      0.0521
   1698 H          32.9164    6.0364    9.7652 H     283  UNL283      0.2090
   1699 O          33.3573    5.6435   12.1132 O.3   284  UNL284     -0.3982
   1700 C          31.9415    5.6435   12.1132 C.3   284  UNL284      0.0330
   1701 H          31.5762    6.5926   11.7133 H     284  UNL284      0.0521
   1702 H          31.5763    5.5009   13.1331 H     284  UNL284      0.0521
   1703 H          31.5862    4.8244   11.4835 H     284  UNL284      0.0521
   1704 H          33.6430    6.3803   12.6797 H     284  UNL284      0.2090
   1705 O          33.9784    5.6060   18.6146 O.3   285  UNL285     -0.3982
   1706 C          32.5626    5.6060   18.6146 C.3   285  UNL285      0.0330
   1707 H          32.1973    5.3670   17.6127 H     285  UNL285      0.0521
   1708 H          32.1974    6.5888   18.9223 H     285  UNL285      0.0521
   1709 H          32.2073    4.8506   19.3194 H     285  UNL285      0.0521
   1710 H          34.2641    6.2856   17.9805 H     285  UNL285      0.2090
   1711 O          33.2713    9.6087    2.7252 O.3   286  UNL286     -0.3982
   1712 C          31.8555    9.6087    2.7252 C.3   286  UNL286      0.0330
   1713 H          31.4902   10.6179    2.9312 H     286  UNL286      0.0521
   1714 H          31.4903    8.9150    3.4864 H     286  UNL286      0.0521
   1715 H          31.5002    9.2884    1.7430 H     286  UNL286      0.0521
   1716 H          33.5570    9.8969    3.6089 H     286  UNL286      0.2090
   1717 O          33.4354    8.9048    6.1375 O.3   287  UNL287     -0.3982
   1718 C          32.0196    8.9048    6.1375 C.3   287  UNL287      0.0330
   1719 H          31.6543    8.1029    5.4911 H     287  UNL287      0.0521
   1720 H          31.6544    9.8706    5.7798 H     287  UNL287      0.0521
   1721 H          31.6643    8.7384    7.1571 H     287  UNL287      0.0521
   1722 H          33.7211    9.0546    5.2202 H     287  UNL287      0.2090
   1723 O          32.4628    8.8197   12.1923 O.3   288  UNL288     -0.3982
   1724 C          31.0470    8.8197   12.1923 C.3   288  UNL288      0.0330
   1725 H          30.6817    8.0507   12.8775 H     288  UNL288      0.0521
   1726 H          30.6818    8.6250   11.1810 H     288  UNL288      0.0521
   1727 H          30.6917    9.7983   12.5235 H     288  UNL288      0.0521
   1728 H          32.7485    7.9393   11.8943 H     288  UNL288      0.2090
   1729 O          34.0547    9.2935   14.5058 O.3   289  UNL289     -0.3982
   1730 C          33.2373    9.0571   15.6373 C.3   289  UNL289      0.0330
   1731 H          33.5670    8.1457   16.1422 H     289  UNL289      0.0521
   1732 H          32.1964    8.9549   15.3210 H     289  UNL289      0.0521
   1733 H          33.3260    9.9032   16.3228 H     289  UNL289      0.0521
   1734 H          33.9552    8.5266   13.9163 H     289  UNL289      0.2090
   1735 O          33.2284    9.1713   18.5634 O.3   290  UNL290     -0.3982
   1736 C          31.8126    9.1713   18.5634 C.3   290  UNL290      0.0330
   1737 H          31.4473    8.4023   19.2486 H     290  UNL290      0.0521
   1738 H          31.4474    8.9766   17.5521 H     290  UNL290      0.0521
   1739 H          31.4573   10.1499   18.8946 H     290  UNL290      0.0521
   1740 H          33.5141    8.2909   18.2654 H     290  UNL290      0.2090
   1741 O          34.0682   12.6060   -0.2140 O.3   291  UNL291     -0.3982
   1742 C          32.6524   12.6060   -0.2140 C.3   291  UNL291      0.0330
   1743 H          32.2871   11.8370    0.4712 H     291  UNL291      0.0521
   1744 H          32.2872   12.4113   -1.2253 H     291  UNL291      0.0521
   1745 H          32.2971   13.5846    0.1172 H     291  UNL291      0.0521
   1746 H          34.3539   11.7256   -0.5120 H     291  UNL291      0.2090
   1747 O          33.1034   12.9912    2.8770 O.3   292  UNL292     -0.3982
   1748 C          31.6876   12.9912    2.8770 C.3   292  UNL292      0.0330
   1749 H          31.3223   12.3549    3.6869 H     292  UNL292      0.0521
   1750 H          31.3224   12.6215    1.9158 H     292  UNL292      0.0521
   1751 H          31.3323   14.0128    3.0308 H     292  UNL292      0.0521
   1752 H          33.3891   12.0721    2.7387 H     292  UNL292      0.2090
   1753 O          33.0920   12.0142    9.7962 O.3   293  UNL293     -0.3982
   1754 C          33.3115   12.0892    8.3995 C.3   293  UNL293      0.0330
   1755 H          33.7592   13.0547    8.1514 H     293  UNL293      0.0521
   1756 H          32.3610   11.9703    7.8736 H     293  UNL293      0.0521
   1757 H          33.9920   11.2875    8.1032 H     293  UNL293      0.0521
   1758 H          32.4850   12.7372   10.0292 H     293  UNL293      0.2090
   1759 O          33.1737   12.1060   12.4267 O.3   294  UNL294     -0.3982
   1760 C          31.7579   12.1060   12.4267 C.3   294  UNL294      0.0330
   1761 H          31.3926   11.3370   13.1119 H     294  UNL294      0.0521
   1762 H          31.3927   11.9113   11.4154 H     294  UNL294      0.0521
   1763 H          31.4026   13.0846   12.7579 H     294  UNL294      0.0521
   1764 H          33.4594   11.2256   12.1287 H     294  UNL294      0.2090
   1765 O          33.9354   12.3094   15.4838 O.3   295  UNL295     -0.3982
   1766 C          32.5196   12.3094   15.4838 C.3   295  UNL295      0.0330
   1767 H          32.1543   12.8157   14.5868 H     295  UNL295      0.0521
   1768 H          32.1544   12.8205   16.3779 H     295  UNL295      0.0521
   1769 H          32.1643   11.2763   15.4866 H     295  UNL295      0.0521
   1770 H          34.2211   13.2389   15.4812 H     295  UNL295      0.2090
@<TRIPOS>BOND
     1     1     2    1
     2     1     6    1
     3     2     3    1
     4     2     4    1
     5     2     5    1
     6     7     8    1
     7     7    12    1
     8     8     9    1
     9     8    10    1
    10     8    11    1
    11    13    14    1
    12    13    18    1
    13    14    15    1
    14    14    16    1
    15    14    17    1
    16    19    20    1
    17    19    24    1
    18    20    21    1
    19    20    22    1
    20    20    23    1
    21    25    26    1
    22    25    30    1
    23    26    27    1
    24    26    28    1
    25    26    29    1
    26    31    32    1
    27    31    36    1
    28    32    33    1
    29    32    34    1
    30    32    35    1
    31    37    38    1
    32    37    42    1
    33    38    39    1
    34    38    40    1
    35    38    41    1
    36    43    44    1
    37    43    48    1
    38    44    45    1
    39    44    46    1
    40    44    47    1
    41    49    50    1
    42    49    54    1
    43    50    51    1
    44    50    52    1
    45    50    53    1
    46    55    56    1
    47    55    60    1
    48    56    57    1
    49    56    58    1
    50    56    59    1
    51    61    62    1
    52    61    66    1
    53    62    63    1
    54    62    64    1
    55    62    65    1
    56    67    68    1
    57    67    72    1
    58    68    69    1
    59    68    70    1
    60    68    71    1
    61    73    74    1
    62    73    78    1
    63    74    75    1
    64    74    76    1
    65    74    77    1
    66    79    80    1
    67    79    84    1
    68    80    81    1
    69    80    82    1
    70    80    83    1
    71    85    86    1
    72    85    90    1
    73    86    87    1
    74    86    88    1
    75    86    89    1
    76    91    92    1
    77    91    96    1
    78    92    93    1
    79    92    94    1
    80    92    95    1
    81    97    98    1
    82    97   102    1
    83    98    99    1
    84    98   100    1
    85    98   101    1
    86   103   104    1
    87   103   108    1
    88   104   105    1
    89   104   106    1
    90   104   107    1
    91   109   110    1
    92   109   114    1
    93   110   111    1
    94   110   112    1
    95   110   113    1
    96   115   116    1
    97   115   120    1
    98   116   117    1
    99   116   118    1
   100   116   119    1
   101   121   122    1
   102   121   126    1
   103   122   123    1
   104   122   124    1
   105   122   125    1
   106   127   128    1
   107   127   132    1
   108   128   129    1
   109   128   130    1
   110   128   131    1
   111   133   134    1
   112   133   138    1
   113   134   135    1
   114   134   136    1
   115   134   137    1
   116   139   140    1
   117   139   144    1
   118   140   141    1
   119   140   142    1
   120   140   143    1
   121   145   146    1
   122   145   150    1
   123   146   147    1
   124   146   148    1
   125   146   149    1
   126   151   152    1
   127   151   156    1
   128   152   153    1
   129   152   154    1
   130   152   155    1
   131   157   158    1
   132   157   162    1
   133   158   159    1
   134   158   160    1
   135   158   161    1
   136   163   164    1
   137   163   168    1
   138   164   165    1
   139   164   166    1
   140   164   167    1
   141   169   170    1
   142   169   174    1
   143   170   171    1
   144   170   172    1
   145   170   173    1
   146   175   176    1
   147   175   180    1
   148   176   177    1
   149   176   178    1
   150   176   179    1
   151   181   182    1
   152   181   186    1
   153   182   183    1
   154   182   184    1
   155   182   185    1
   156   187   188    1
   157   187   192    1
   158   188   189    1
   159   188   190    1
   160   188   191    1
   161   193   194    1
   162   193   198    1
   163   194   195    1
   164   194   196    1
   165   194   197    1
   166   199   200    1
   167   199   204    1
   168   200   201    1
   169   200   202    1
   170   200   203    1
   171   205   206    1
   172   205   210    1
   173   206   207    1
   174   206   208    1
   175   206   209    1
   176   211   212    1
   177   211   216    1
   178   212   213    1
   179   212   214    1
   180   212   215    1
   181   217   218    1
   182   217   222    1
   183   218   219    1
   184   218   220    1
   185   218   221    1
   186   223   224    1
   187   223   228    1
   188   224   225    1
   189   224   226    1
   190   224   227    1
   191   229   230    1
   192   229   234    1
   193   230   231    1
   194   230   232    1
   195   230   233    1
   196   235   236    1
   197   235   240    1
   198   236   237    1
   199   236   238    1
   200   236   239    1
   201   241   242    1
   202   241   246    1
   203   242   243    1
   204   242   244    1
   205   242   245    1
   206   247   248    1
   207   247   252    1
   208   248   249    1
   209   248   250    1
   210   248   251    1
   211   253   254    1
   212   253   258    1
   213   254   255    1
   214   254   256    1
   215   254   257    1
   216   259   260    1
   217   259   264    1
   218   260   261    1
   219   260   262    1
   220   260   263    1
   221   265   266    1
   222   265   270    1
   223   266   267    1
   224   266   268    1
   225   266   269    1
   226   271   272    1
   227   271   276    1
   228   272   273    1
   229   272   274    1
   230   272   275    1
   231   277   278    1
   232   277   282    1
   233   278   279    1
   234   278   280    1
   235   278   281    1
   236   283   284    1
   237   283   288    1
   238   284   285    1
   239   284   286    1
   240   284   287    1
   241   289   290    1
   242   289   294    1
   243   290   291    1
   244   290   292    1
   245   290   293    1
   246   295   296    1
   247   295   300    1
   248   296   297    1
   249   296   298    1
   250   296   299    1
   251   301   302    1
   252   301   306    1
   253   302   303    1
   254   302   304    1
   255   302   305    1
   256   307   308    1
   257   307   312    1
   258   308   309    1
   259   308   310    1
   260   308   311    1
   261   313   314    1
   262   313   318    1
   263   314   315    1
   264   314   316    1
   265   314   317    1
   266   319   320    1
   267   319   324    1
   268   320   321    1
   269   320   322    1
   270   320   323    1
   271   325   326    1
   272   325   330    1
   273   326   327    1
   274   326   328    1
   275   326   329    1
   276   331   332    1
   277   331   336    1
   278   332   333    1
   279   332   334    1
   280   332   335    1
   281   337   338    1
   282   337   342    1
   283   338   339    1
   284   338   340    1
   285   338   341    1
   286   343   344    1
   287   343   348    1
   288   344   345    1
   289   344   346    1
   290   344   347    1
   291   349   350    1
   292   349   354    1
   293   350   351    1
   294   350   352    1
   295   350   353    1
   296   355   356    1
   297   355   360    1
   298   356   357    1
   299   356   358    1
   300   356   359    1
   301   361   362    1
   302   361   366    1
   303   362   363    1
   304   362   364    1
   305   362   365    1
   306   367   368    1
   307   367   372    1
   308   368   369    1
   309   368   370    1
   310   368   371    1
   311   373   374    1
   312   373   378    1
   313   374   375    1
   314   374   376    1
   315   374   377    1
   316   379   380    1
   317   379   384    1
   318   380   381    1
   319   380   382    1
   320   380   383    1
   321   385   386    1
   322   385   390    1
   323   386   387    1
   324   386   388    1
   325   386   389    1
   326   391   392    1
   327   391   396    1
   328   392   393    1
   329   392   394    1
   330   392   395    1
   331   397   398    1
   332   397   402    1
   333   398   399    1
   334   398   400    1
   335   398   401    1
   336   403   404    1
   337   403   408    1
   338   404   405    1
   339   404   406    1
   340   404   407    1
   341   409   410    1
   342   409   414    1
   343   410   411    1
   344   410   412    1
   345   410   413    1
   346   415   416    1
   347   415   420    1
   348   416   417    1
   349   416   418    1
   350   416   419    1
   351   421   422    1
   352   421   426    1
   353   422   423    1
   354   422   424    1
   355   422   425    1
   356   427   428    1
   357   427   432    1
   358   428   429    1
   359   428   430    1
   360   428   431    1
   361   433   434    1
   362   433   438    1
   363   434   435    1
   364   434   436    1
   365   434   437    1
   366   439   440    1
   367   439   444    1
   368   440   441    1
   369   440   442    1
   370   440   443    1
   371   445   446    1
   372   445   450    1
   373   446   447    1
   374   446   448    1
   375   446   449    1
   376   451   452    1
   377   451   456    1
   378   452   453    1
   379   452   454    1
   380   452   455    1
   381   457   458    1
   382   457   462    1
   383   458   459    1
   384   458   460    1
   385   458   461    1
   386   463   464    1
   387   463   468    1
   388   464   465    1
   389   464   466    1
   390   464   467    1
   391   469   470    1
   392   469   474    1
   393   470   471    1
   394   470   472    1
   395   470   473    1
   396   475   476    1
   397   475   480    1
   398   476   477    1
   399   476   478    1
   400   476   479    1
   401   481   482    1
   402   481   486    1
   403   482   483    1
   404   482   484    1
   405   482   485    1
   406   487   488    1
   407   487   492    1
   408   488   489    1
   409   488   490    1
   410   488   491    1
   411   493   494    1
   412   493   498    1
   413   494   495    1
   414   494   496    1
   415   494   497    1
   416   499   500    1
   417   499   504    1
   418   500   501    1
   419   500   502    1
   420   500   503    1
   421   505   506    1
   422   505   510    1
   423   506   507    1
   424   506   508    1
   425   506   509    1
   426   511   512    1
   427   511   516    1
   428   512   513    1
   429   512   514    1
   430   512   515    1
   431   517   518    1
   432   517   522    1
   433   518   519    1
   434   518   520    1
   435   518   521    1
   436   523   524    1
   437   523   528    1
   438   524   525    1
   439   524   526    1
   440   524   527    1
   441   529   530    1
   442   529   534    1
   443   530   531    1
   444   530   532    1
   445   530   533    1
   446   535   536    1
   447   535   540    1
   448   536   537    1
   449   536   538    1
   450   536   539    1
   451   541   542    1
   452   541   546    1
   453   542   543    1
   454   542   544    1
   455   542   545    1
   456   547   548    1
   457   547   552    1
   458   548   549    1
   459   548   550    1
   460   548   551    1
   461   553   554    1
   462   553   558    1
   463   554   555    1
   464   554   556    1
   465   554   557    1
   466   559   560    1
   467   559   564    1
   468   560   561    1
   469   560   562    1
   470   560   563    1
   471   565   566    1
   472   565   570    1
   473   566   567    1
   474   566   568    1
   475   566   569    1
   476   571   572    1
   477   571   576    1
   478   572   573    1
   479   572   574    1
   480   572   575    1
   481   577   578    1
   482   577   582    1
   483   578   579    1
   484   578   580    1
   485   578   581    1
   486   583   584    1
   487   583   588    1
   488   584   585    1
   489   584   586    1
   490   584   587    1
   491   589   590    1
   492   589   594    1
   493   590   591    1
   494   590   592    1
   495   590   593    1
   496   595   596    1
   497   595   600    1
   498   596   597    1
   499   596   598    1
   500   596   599    1
   501   601   602    1
   502   601   606    1
   503   602   603    1
   504   602   604    1
   505   602   605    1
   506   607   608    1
   507   607   612    1
   508   608   609    1
   509   608   610    1
   510   608   611    1
   511   613   614    1
   512   613   618    1
   513   614   615    1
   514   614   616    1
   515   614   617    1
   516   619   620    1
   517   619   624    1
   518   620   621    1
   519   620   622    1
   520   620   623    1
   521   625   626    1
   522   625   630    1
   523   626   627    1
   524   626   628    1
   525   626   629    1
   526   631   632    1
   527   631   636    1
   528   632   633    1
   529   632   634    1
   530   632   635    1
   531   637   638    1
   532   637   642    1
   533   638   639    1
   534   638   640    1
   535   638   641    1
   536   643   644    1
   537   643   648    1
   538   644   645    1
   539   644   646    1
   540   644   647    1
   541   649   650    1
   542   649   654    1
   543   650   651    1
   544   650   652    1
   545   650   653    1
   546   655   656    1
   547   655   660    1
   548   656   657    1
   549   656   658    1
   550   656   659    1
   551   661   662    1
   552   661   666    1
   553   662   663    1
   554   662   664    1
   555   662   665    1
   556   667   668    1
   557   667   672    1
   558   668   669    1
   559   668   670    1
   560   668   671    1
   561   673   674    1
   562   673   678    1
   563   674   675    1
   564   674   676    1
   565   674   677    1
   566   679   680    1
   567   679   684    1
   568   680   681    1
   569   680   682    1
   570   680   683    1
   571   685   686    1
   572   685   690    1
   573   686   687    1
   574   686   688    1
   575   686   689    1
   576   691   692    1
   577   691   696    1
   578   692   693    1
   579   692   694    1
   580   692   695    1
   581   697   698    1
   582   697   702    1
   583   698   699    1
   584   698   700    1
   585   698   701    1
   586   703   704    1
   587   703   708    1
   588   704   705    1
   589   704   706    1
   590   704   707    1
   591   709   710    1
   592   709   714    1
   593   710   711    1
   594   710   712    1
   595   710   713    1
   596   715   716    1
   597   715   720    1
   598   716   717    1
   599   716   718    1
   600   716   719    1
   601   721   722    1
   602   721   726    1
   603   722   723    1
   604   722   724    1
   605   722   725    1
   606   727   728    1
   607   727   732    1
   608   728   729    1
   609   728   730    1
   610   728   731    1
   611   733   734    1
   612   733   738    1
   613   734   735    1
   614   734   736    1
   615   734   737    1
   616   739   740    1
   617   739   744    1
   618   740   741    1
   619   740   742    1
   620   740   743    1
   621   745   746    1
   622   745   750    1
   623   746   747    1
   624   746   748    1
   625   746   749    1
   626   751   752    1
   627   751   756    1
   628   752   753    1
   629   752   754    1
   630   752   755    1
   631   757   758    1
   632   757   762    1
   633   758   759    1
   634   758   760    1
   635   758   761    1
   636   763   764    1
   637   763   768    1
   638   764   765    1
   639   764   766    1
   640   764   767    1
   641   769   770    1
   642   769   774    1
   643   770   771    1
   644   770   772    1
   645   770   773    1
   646   775   776    1
   647   775   780    1
   648   776   777    1
   649   776   778    1
   650   776   779    1
   651   781   782    1
   652   781   786    1
   653   782   783    1
   654   782   784    1
   655   782   785    1
   656   787   788    1
   657   787   792    1
   658   788   789    1
   659   788   790    1
   660   788   791    1
   661   793   794    1
   662   793   798    1
   663   794   795    1
   664   794   796    1
   665   794   797    1
   666   799   800    1
   667   799   804    1
   668   800   801    1
   669   800   802    1
   670   800   803    1
   671   805   806    1
   672   805   810    1
   673   806   807    1
   674   806   808    1
   675   806   809    1
   676   811   812    1
   677   811   816    1
   678   812   813    1
   679   812   814    1
   680   812   815    1
   681   817   818    1
   682   817   822    1
   683   818   819    1
   684   818   820    1
   685   818   821    1
   686   823   824    1
   687   823   828    1
   688   824   825    1
   689   824   826    1
   690   824   827    1
   691   829   830    1
   692   829   834    1
   693   830   831    1
   694   830   832    1
   695   830   833    1
   696   835   836    1
   697   835   840    1
   698   836   837    1
   699   836   838    1
   700   836   839    1
   701   841   842    1
   702   841   846    1
   703   842   843    1
   704   842   844    1
   705   842   845    1
   706   847   848    1
   707   847   852    1
   708   848   849    1
   709   848   850    1
   710   848   851    1
   711   853   854    1
   712   853   858    1
   713   854   855    1
   714   854   856    1
   715   854   857    1
   716   859   860    1
   717   859   864    1
   718   860   861    1
   719   860   862    1
   720   860   863    1
   721   865   866    1
   722   865   870    1
   723   866   867    1
   724   866   868    1
   725   866   869    1
   726   871   872    1
   727   871   876    1
   728   872   873    1
   729   872   874    1
   730   872   875    1
   731   877   878    1
   732   877   882    1
   733   878   879    1
   734   878   880    1
   735   878   881    1
   736   883   884    1
   737   883   888    1
   738   884   885    1
   739   884   886    1
   740   884   887    1
   741   889   890    1
   742   889   894    1
   743   890   891    1
   744   890   892    1
   745   890   893    1
   746   895   896    1
   747   895   900    1
   748   896   897    1
   749   896   898    1
   750   896   899    1
   751   901   902    1
   752   901   906    1
   753   902   903    1
   754   902   904    1
   755   902   905    1
   756   907   908    1
   757   907   912    1
   758   908   909    1
   759   908   910    1
   760   908   911    1
   761   913   914    1
   762   913   918    1
   763   914   915    1
   764   914   916    1
   765   914   917    1
   766   919   920    1
   767   919   924    1
   768   920   921    1
   769   920   922    1
   770   920   923    1
   771   925   926    1
   772   925   930    1
   773   926   927    1
   774   926   928    1
   775   926   929    1
   776   931   932    1
   777   931   936    1
   778   932   933    1
   779   932   934    1
   780   932   935    1
   781   937   938    1
   782   937   942    1
   783   938   939    1
   784   938   940    1
   785   938   941    1
   786   943   944    1
   787   943   948    1
   788   944   945    1
   789   944   946    1
   790   944   947    1
   791   949   950    1
   792   949   954    1
   793   950   951    1
   794   950   952    1
   795   950   953    1
   796   955   956    1
   797   955   960    1
   798   956   957    1
   799   956   958    1
   800   956   959    1
   801   961   962    1
   802   961   966    1
   803   962   963    1
   804   962   964    1
   805   962   965    1
   806   967   968    1
   807   967   972    1
   808   968   969    1
   809   968   970    1
   810   968   971    1
   811   973   974    1
   812   973   978    1
   813   974   975    1
   814   974   976    1
   815   974   977    1
   816   979   980    1
   817   979   984    1
   818   980   981    1
   819   980   982    1
   820   980   983    1
   821   985   986    1
   822   985   990    1
   823   986   987    1
   824   986   988    1
   825   986   989    1
   826   991   992    1
   827   991   996    1
   828   992   993    1
   829   992   994    1
   830   992   995    1
   831   997   998    1
   832   997  1002    1
   833   998   999    1
   834   998  1000    1
   835   998  1001    1
   836  1003  1004    1
   837  1003  1008    1
   838  1004  1005    1
   839  1004  1006    1
   840  1004  1007    1
   841  1009  1010    1
   842  1009  1014    1
   843  1010  1011    1
   844  1010  1012    1
   845  1010  1013    1
   846  1015  1016    1
   847  1015  1020    1
   848  1016  1017    1
   849  1016  1018    1
   850  1016  1019    1
   851  1021  1022    1
   852  1021  1026    1
   853  1022  1023    1
   854  1022  1024    1
   855  1022  1025    1
   856  1027  1028    1
   857  1027  1032    1
   858  1028  1029    1
   859  1028  1030    1
   860  1028  1031    1
   861  1033  1034    1
   862  1033  1038    1
   863  1034  1035    1
   864  1034  1036    1
   865  1034  1037    1
   866  1039  1040    1
   867  1039  1044    1
   868  1040  1041    1
   869  1040  1042    1
   870  1040  1043    1
   871  1045  1046    1
   872  1045  1050    1
   873  1046  1047    1
   874  1046  1048    1
   875  1046  1049    1
   876  1051  1052    1
   877  1051  1056    1
   878  1052  1053    1
   879  1052  1054    1
   880  1052  1055    1
   881  1057  1058    1
   882  1057  1062    1
   883  1058  1059    1
   884  1058  1060    1
   885  1058  1061    1
   886  1063  1064    1
   887  1063  1068    1
   888  1064  1065    1
   889  1064  1066    1
   890  1064  1067    1
   891  1069  1070    1
   892  1069  1074    1
   893  1070  1071    1
   894  1070  1072    1
   895  1070  1073    1
   896  1075  1076    1
   897  1075  1080    1
   898  1076  1077    1
   899  1076  1078    1
   900  1076  1079    1
   901  1081  1082    1
   902  1081  1086    1
   903  1082  1083    1
   904  1082  1084    1
   905  1082  1085    1
   906  1087  1088    1
   907  1087  1092    1
   908  1088  1089    1
   909  1088  1090    1
   910  1088  1091    1
   911  1093  1094    1
   912  1093  1098    1
   913  1094  1095    1
   914  1094  1096    1
   915  1094  1097    1
   916  1099  1100    1
   917  1099  1104    1
   918  1100  1101    1
   919  1100  1102    1
   920  1100  1103    1
   921  1105  1106    1
   922  1105  1110    1
   923  1106  1107    1
   924  1106  1108    1
   925  1106  1109    1
   926  1111  1112    1
   927  1111  1116    1
   928  1112  1113    1
   929  1112  1114    1
   930  1112  1115    1
   931  1117  1118    1
   932  1117  1122    1
   933  1118  1119    1
   934  1118  1120    1
   935  1118  1121    1
   936  1123  1124    1
   937  1123  1128    1
   938  1124  1125    1
   939  1124  1126    1
   940  1124  1127    1
   941  1129  1130    1
   942  1129  1134    1
   943  1130  1131    1
   944  1130  1132    1
   945  1130  1133    1
   946  1135  1136    1
   947  1135  1140    1
   948  1136  1137    1
   949  1136  1138    1
   950  1136  1139    1
   951  1141  1142    1
   952  1141  1146    1
   953  1142  1143    1
   954  1142  1144    1
   955  1142  1145    1
   956  1147  1148    1
   957  1147  1152    1
   958  1148  1149    1
   959  1148  1150    1
   960  1148  1151    1
   961  1153  1154    1
   962  1153  1158    1
   963  1154  1155    1
   964  1154  1156    1
   965  1154  1157    1
   966  1159  1160    1
   967  1159  1164    1
   968  1160  1161    1
   969  1160  1162    1
   970  1160  1163    1
   971  1165  1166    1
   972  1165  1170    1
   973  1166  1167    1
   974  1166  1168    1
   975  1166  1169    1
   976  1171  1172    1
   977  1171  1176    1
   978  1172  1173    1
   979  1172  1174    1
   980  1172  1175    1
   981  1177  1178    1
   982  1177  1182    1
   983  1178  1179    1
   984  1178  1180    1
   985  1178  1181    1
   986  1183  1184    1
   987  1183  1188    1
   988  1184  1185    1
   989  1184  1186    1
   990  1184  1187    1
   991  1189  1190    1
   992  1189  1194    1
   993  1190  1191    1
   994  1190  1192    1
   995  1190  1193    1
   996  1195  1196    1
   997  1195  1200    1
   998  1196  1197    1
   999  1196  1198    1
  1000  1196  1199    1
  1001  1201  1202    1
  1002  1201  1206    1
  1003  1202  1203    1
  1004  1202  1204    1
  1005  1202  1205    1
  1006  1207  1208    1
  1007  1207  1212    1
  1008  1208  1209    1
  1009  1208  1210    1
  1010  1208  1211    1
  1011  1213  1214    1
  1012  1213  1218    1
  1013  1214  1215    1
  1014  1214  1216    1
  1015  1214  1217    1
  1016  1219  1220    1
  1017  1219  1224    1
  1018  1220  1221    1
  1019  1220  1222    1
  1020  1220  1223    1
  1021  1225  1226    1
  1022  1225  1230    1
  1023  1226  1227    1
  1024  1226  1228    1
  1025  1226  1229    1
  1026  1231  1232    1
  1027  1231  1236    1
  1028  1232  1233    1
  1029  1232  1234    1
  1030  1232  1235    1
  1031  1237  1238    1
  1032  1237  1242    1
  1033  1238  1239    1
  1034  1238  1240    1
  1035  1238  1241    1
  1036  1243  1244    1
  1037  1243  1248    1
  1038  1244  1245    1
  1039  1244  1246    1
  1040  1244  1247    1
  1041  1249  1250    1
  1042  1249  1254    1
  1043  1250  1251    1
  1044  1250  1252    1
  1045  1250  1253    1
  1046  1255  1256    1
  1047  1255  1260    1
  1048  1256  1257    1
  1049  1256  1258    1
  1050  1256  1259    1
  1051  1261  1262    1
  1052  1261  1266    1
  1053  1262  1263    1
  1054  1262  1264    1
  1055  1262  1265    1
  1056  1267  1268    1
  1057  1267  1272    1
  1058  1268  1269    1
  1059  1268  1270    1
  1060  1268  1271    1
  1061  1273  1274    1
  1062  1273  1278    1
  1063  1274  1275    1
  1064  1274  1276    1
  1065  1274  1277    1
  1066  1279  1280    1
  1067  1279  1284    1
  1068  1280  1281    1
  1069  1280  1282    1
  1070  1280  1283    1
  1071  1285  1286    1
  1072  1285  1290    1
  1073  1286  1287    1
  1074  1286  1288    1
  1075  1286  1289    1
  1076  1291  1292    1
  1077  1291  1296    1
  1078  1292  1293    1
  1079  1292  1294    1
  1080  1292  1295    1
  1081  1297  1298    1
  1082  1297  1302    1
  1083  1298  1299    1
  1084  1298  1300    1
  1085  1298  1301    1
  1086  1303  1304    1
  1087  1303  1308    1
  1088  1304  1305    1
  1089  1304  1306    1
  1090  1304  1307    1
  1091  1309  1310    1
  1092  1309  1314    1
  1093  1310  1311    1
  1094  1310  1312    1
  1095  1310  1313    1
  1096  1315  1316    1
  1097  1315  1320    1
  1098  1316  1317    1
  1099  1316  1318    1
  1100  1316  1319    1
  1101  1321  1322    1
  1102  1321  1326    1
  1103  1322  1323    1
  1104  1322  1324    1
  1105  1322  1325    1
  1106  1327  1328    1
  1107  1327  1332    1
  1108  1328  1329    1
  1109  1328  1330    1
  1110  1328  1331    1
  1111  1333  1334    1
  1112  1333  1338    1
  1113  1334  1335    1
  1114  1334  1336    1
  1115  1334  1337    1
  1116  1339  1340    1
  1117  1339  1344    1
  1118  1340  1341    1
  1119  1340  1342    1
  1120  1340  1343    1
  1121  1345  1346    1
  1122  1345  1350    1
  1123  1346  1347    1
  1124  1346  1348    1
  1125  1346  1349    1
  1126  1351  1352    1
  1127  1351  1356    1
  1128  1352  1353    1
  1129  1352  1354    1
  1130  1352  1355    1
  1131  1357  1358    1
  1132  1357  1362    1
  1133  1358  1359    1
  1134  1358  1360    1
  1135  1358  1361    1
  1136  1363  1364    1
  1137  1363  1368    1
  1138  1364  1365    1
  1139  1364  1366    1
  1140  1364  1367    1
  1141  1369  1370    1
  1142  1369  1374    1
  1143  1370  1371    1
  1144  1370  1372    1
  1145  1370  1373    1
  1146  1375  1376    1
  1147  1375  1380    1
  1148  1376  1377    1
  1149  1376  1378    1
  1150  1376  1379    1
  1151  1381  1382    1
  1152  1381  1386    1
  1153  1382  1383    1
  1154  1382  1384    1
  1155  1382  1385    1
  1156  1387  1388    1
  1157  1387  1392    1
  1158  1388  1389    1
  1159  1388  1390    1
  1160  1388  1391    1
  1161  1393  1394    1
  1162  1393  1398    1
  1163  1394  1395    1
  1164  1394  1396    1
  1165  1394  1397    1
  1166  1399  1400    1
  1167  1399  1404    1
  1168  1400  1401    1
  1169  1400  1402    1
  1170  1400  1403    1
  1171  1405  1406    1
  1172  1405  1410    1
  1173  1406  1407    1
  1174  1406  1408    1
  1175  1406  1409    1
  1176  1411  1412    1
  1177  1411  1416    1
  1178  1412  1413    1
  1179  1412  1414    1
  1180  1412  1415    1
  1181  1417  1418    1
  1182  1417  1422    1
  1183  1418  1419    1
  1184  1418  1420    1
  1185  1418  1421    1
  1186  1423  1424    1
  1187  1423  1428    1
  1188  1424  1425    1
  1189  1424  1426    1
  1190  1424  1427    1
  1191  1429  1430    1
  1192  1429  1434    1
  1193  1430  1431    1
  1194  1430  1432    1
  1195  1430  1433    1
  1196  1435  1436    1
  1197  1435  1440    1
  1198  1436  1437    1
  1199  1436  1438    1
  1200  1436  1439    1
  1201  1441  1442    1
  1202  1441  1446    1
  1203  1442  1443    1
  1204  1442  1444    1
  1205  1442  1445    1
  1206  1447  1448    1
  1207  1447  1452    1
  1208  1448  1449    1
  1209  1448  1450    1
  1210  1448  1451    1
  1211  1453  1454    1
  1212  1453  1458    1
  1213  1454  1455    1
  1214  1454  1456    1
  1215  1454  1457    1
  1216  1459  1460    1
  1217  1459  1464    1
  1218  1460  1461    1
  1219  1460  1462    1
  1220  1460  1463    1
  1221  1465  1466    1
  1222  1465  1470    1
  1223  1466  1467    1
  1224  1466  1468    1
  1225  1466  1469    1
  1226  1471  1472    1
  1227  1471  1476    1
  1228  1472  1473    1
  1229  1472  1474    1
  1230  1472  1475    1
  1231  1477  1478    1
  1232  1477  1482    1
  1233  1478  1479    1
  1234  1478  1480    1
  1235  1478  1481    1
  1236  1483  1484    1
  1237  1483  1488    1
  1238  1484  1485    1
  1239  1484  1486    1
  1240  1484  1487    1
  1241  1489  1490    1
  1242  1489  1494    1
  1243  1490  1491    1
  1244  1490  1492    1
  1245  1490  1493    1
  1246  1495  1496    1
  1247  1495  1500    1
  1248  1496  1497    1
  1249  1496  1498    1
  1250  1496  1499    1
  1251  1501  1502    1
  1252  1501  1506    1
  1253  1502  1503    1
  1254  1502  1504    1
  1255  1502  1505    1
  1256  1507  1508    1
  1257  1507  1512    1
  1258  1508  1509    1
  1259  1508  1510    1
  1260  1508  1511    1
  1261  1513  1514    1
  1262  1513  1518    1
  1263  1514  1515    1
  1264  1514  1516    1
  1265  1514  1517    1
  1266  1519  1520    1
  1267  1519  1524    1
  1268  1520  1521    1
  1269  1520  1522    1
  1270  1520  1523    1
  1271  1525  1526    1
  1272  1525  1530    1
  1273  1526  1527    1
  1274  1526  1528    1
  1275  1526  1529    1
  1276  1531  1532    1
  1277  1531  1536    1
  1278  1532  1533    1
  1279  1532  1534    1
  1280  1532  1535    1
  1281  1537  1538    1
  1282  1537  1542    1
  1283  1538  1539    1
  1284  1538  1540    1
  1285  1538  1541    1
  1286  1543  1544    1
  1287  1543  1548    1
  1288  1544  1545    1
  1289  1544  1546    1
  1290  1544  1547    1
  1291  1549  1550    1
  1292  1549  1554    1
  1293  1550  1551    1
  1294  1550  1552    1
  1295  1550  1553    1
  1296  1555  1556    1
  1297  1555  1560    1
  1298  1556  1557    1
  1299  1556  1558    1
  1300  1556  1559    1
  1301  1561  1562    1
  1302  1561  1566    1
  1303  1562  1563    1
  1304  1562  1564    1
  1305  1562  1565    1
  1306  1567  1568    1
  1307  1567  1572    1
  1308  1568  1569    1
  1309  1568  1570    1
  1310  1568  1571    1
  1311  1573  1574    1
  1312  1573  1578    1
  1313  1574  1575    1
  1314  1574  1576    1
  1315  1574  1577    1
  1316  1579  1580    1
  1317  1579  1584    1
  1318  1580  1581    1
  1319  1580  1582    1
  1320  1580  1583    1
  1321  1585  1586    1
  1322  1585  1590    1
  1323  1586  1587    1
  1324  1586  1588    1
  1325  1586  1589    1
  1326  1591  1592    1
  1327  1591  1596    1
  1328  1592  1593    1
  1329  1592  1594    1
  1330  1592  1595    1
  1331  1597  1598    1
  1332  1597  1602    1
  1333  1598  1599    1
  1334  1598  1600    1
  1335  1598  1601    1
  1336  1603  1604    1
  1337  1603  1608    1
  1338  1604  1605    1
  1339  1604  1606    1
  1340  1604  1607    1
  1341  1609  1610    1
  1342  1609  1614    1
  1343  1610  1611    1
  1344  1610  1612    1
  1345  1610  1613    1
  1346  1615  1616    1
  1347  1615  1620    1
  1348  1616  1617    1
  1349  1616  1618    1
  1350  1616  1619    1
  1351  1621  1622    1
  1352  1621  1626    1
  1353  1622  1623    1
  1354  1622  1624    1
  1355  1622  1625    1
  1356  1627  1628    1
  1357  1627  1632    1
  1358  1628  1629    1
  1359  1628  1630    1
  1360  1628  1631    1
  1361  1633  1634    1
  1362  1633  1638    1
  1363  1634  1635    1
  1364  1634  1636    1
  1365  1634  1637    1
  1366  1639  1640    1
  1367  1639  1644    1
  1368  1640  1641    1
  1369  1640  1642    1
  1370  1640  1643    1
  1371  1645  1646    1
  1372  1645  1650    1
  1373  1646  1647    1
  1374  1646  1648    1
  1375  1646  1649    1
  1376  1651  1652    1
  1377  1651  1656    1
  1378  1652  1653    1
  1379  1652  1654    1
  1380  1652  1655    1
  1381  1657  1658    1
  1382  1657  1662    1
  1383  1658  1659    1
  1384  1658  1660    1
  1385  1658  1661    1
  1386  1663  1664    1
  1387  1663  1668    1
  1388  1664  1665    1
  1389  1664  1666    1
  1390  1664  1667    1
  1391  1669  1670    1
  1392  1669  1674    1
  1393  1670  1671    1
  1394  1670  1672    1
  1395  1670  1673    1
  1396  1675  1676    1
  1397  1675  1680    1
  1398  1676  1677    1
  1399  1676  1678    1
  1400  1676  1679    1
  1401  1681  1682    1
  1402  1681  1686    1
  1403  1682  1683    1
  1404  1682  1684    1
  1405  1682  1685    1
  1406  1687  1688    1
  1407  1687  1692    1
  1408  1688  1689    1
  1409  1688  1690    1
  1410  1688  1691    1
  1411  1693  1694    1
  1412  1693  1698    1
  1413  1694  1695    1
  1414  1694  1696    1
  1415  1694  1697    1
  1416  1699  1700    1
  1417  1699  1704    1
  1418  1700  1701    1
  1419  1700  1702    1
  1420  1700  1703    1
  1421  1705  1706    1
  1422  1705  1710    1
  1423  1706  1707    1
  1424  1706  1708    1
  1425  1706  1709    1
  1426  1711  1712    1
  1427  1711  1716    1
  1428  1712  1713    1
  1429  1712  1714    1
  1430  1712  1715    1
  1431  1717  1718    1
  1432  1717  1722    1
  1433  1718  1719    1
  1434  1718  1720    1
  1435  1718  1721    1
  1436  1723  1724    1
  1437  1723  1728    1
  1438  1724  1725    1
  1439  1724  1726    1
  1440  1724  1727    1
  1441  1729  1730    1
  1442  1729  1734    1
  1443  1730  1731    1
  1444  1730  1732    1
  1445  1730  1733    1
  1446  1735  1736    1
  1447  1735  1740    1
  1448  1736  1737    1
  1449  1736  1738    1
  1450  1736  1739    1
  1451  1741  1742    1
  1452  1741  1746    1
  1453  1742  1743    1
  1454  1742  1744    1
  1455  1742  1745    1
  1456  1747  1748    1
  1457  1747  1752    1
  1458  1748  1749    1
  1459  1748  1750    1
  1460  1748  1751    1
  1461  1753  1754    1
  1462  1753  1758    1
  1463  1754  1755    1
  1464  1754  1756    1
  1465  1754  1757    1
  1466  1759  1760    1
  1467  1759  1764    1
  1468  1760  1761    1
  1469  1760  1762    1
  1470  1760  1763    1
  1471  1765  1766    1
  1472  1765  1770    1
  1473  1766  1767    1
  1474  1766  1768    1
  1475  1766  1769    1
