@<TRIPOS>MOLECULE
*****
 192 160 0 0 0
SMALL
GASTEIGER

@<TRIPOS>ATOM
      1 O          -0.3556    0.1979    4.0299 O.3     1  UNL1       -0.3982
      2 C          -1.2364    0.2742    5.1357 C.3     1  UNL1        0.0330
      3 H          -0.9976   -0.5192    5.8483 H       1  UNL1        0.0521
      4 H          -2.2674    0.1693    4.7892 H       1  UNL1        0.0521
      5 H          -1.1144    1.2455    5.6207 H       1  UNL1        0.0521
      6 H          -0.4865   -0.6741    3.6200 H       1  UNL1        0.2090
      7 O           0.4413   -0.1381   10.3180 O.3     2  UNL2       -0.3982
      8 C          -0.4395   -0.0617   11.4238 C.3     2  UNL2        0.0330
      9 H          -0.2008   -0.8551   12.1364 H       2  UNL2        0.0521
     10 H          -1.4706   -0.1667   11.0774 H       2  UNL2        0.0521
     11 H          -0.3176    0.9096   11.9088 H       2  UNL2        0.0521
     12 H           0.3104   -1.0101    9.9081 H       2  UNL2        0.2090
     13 O           0.0194   -0.6068   17.4537 O.3     3  UNL3       -0.3982
     14 C          -0.8614   -0.5305   18.5596 C.3     3  UNL3        0.0330
     15 H          -0.6226   -1.3238   19.2722 H       3  UNL3        0.0521
     16 H          -1.8924   -0.6354   18.2131 H       3  UNL3        0.0521
     17 H          -0.7394    0.4408   19.0446 H       3  UNL3        0.0521
     18 H          -0.1115   -1.4788   17.0439 H       3  UNL3        0.2090
     19 O          -0.7918   -0.5375   24.7458 O.3     4  UNL4       -0.3982
     20 C          -1.4419    0.0616   25.8516 C.3     4  UNL4        0.0330
     21 H          -1.7383   -0.7120   26.5642 H       4  UNL4        0.0521
     22 H          -2.3217    0.6093   25.5051 H       4  UNL4        0.0521
     23 H          -0.7513    0.7554   26.3366 H       4  UNL4        0.0521
     24 H          -1.4287   -1.1473   24.3359 H       4  UNL4        0.2090
     25 O           0.3956    3.9366    0.2521 O.3     5  UNL5       -0.3982
     26 C          -0.7245    3.9366    1.1181 C.3     5  UNL5        0.0330
     27 H          -0.5943    3.1676    1.8836 H       5  UNL5        0.0521
     28 H          -1.6320    3.7419    0.5414 H       5  UNL5        0.0521
     29 H          -0.8030    4.9152    1.5974 H       5  UNL5        0.0521
     30 H           0.4393    3.0562   -0.1584 H       5  UNL5        0.2090
     31 O          -0.7216    4.7143   15.0696 O.3     6  UNL6       -0.3982
     32 C          -0.4231    4.0362   13.8631 C.3     6  UNL6        0.0330
     33 H           0.2026    3.1664   14.0781 H       6  UNL6        0.0521
     34 H           0.0980    4.7140   13.1826 H       6  UNL6        0.0521
     35 H          -1.3563    3.7058   13.4010 H       6  UNL6        0.0521
     36 H           0.1252    4.9953   15.4564 H       6  UNL6        0.2090
     37 O           0.0595    6.7305   17.7547 O.3     7  UNL7       -0.3982
     38 C          -1.3563    6.7305   17.7547 C.3     7  UNL7        0.0330
     39 H          -1.7216    5.9615   18.4399 H       7  UNL7        0.0521
     40 H          -1.7215    6.5358   16.7434 H       7  UNL7        0.0521
     41 H          -1.7116    7.7091   18.0859 H       7  UNL7        0.0521
     42 H           0.3452    5.8501   17.4567 H       7  UNL7        0.2090
     43 O           2.7577   -1.0491    1.2555 O.3     8  UNL8       -0.3982
     44 C           1.3419   -1.0491    1.2555 C.3     8  UNL8        0.0330
     45 H           0.9766   -0.0437    1.0318 H       8  UNL8        0.0521
     46 H           0.9767   -1.3717    2.2336 H       8  UNL8        0.0521
     47 H           0.9866   -1.7424    0.4896 H       8  UNL8        0.0521
     48 H           3.0434   -0.4254    1.9447 H       8  UNL8        0.2090
     49 O           4.0273   -0.3896    4.8253 O.3     9  UNL9       -0.3982
     50 C           2.6115   -0.3896    4.8253 C.3     9  UNL9        0.0330
     51 H           2.2462   -0.0519    3.8523 H       9  UNL9        0.0521
     52 H           2.2463    0.2731    5.6136 H       9  UNL9        0.0521
     53 H           2.2562   -1.4056    5.0128 H       9  UNL9        0.0521
     54 H           4.3130    0.5244    4.6566 H       9  UNL9        0.2090
     55 O           4.9179   -0.6279   11.1759 O.3    10  UNL10      -0.3982
     56 C           3.5021   -0.6279   11.1759 C.3    10  UNL10       0.0330
     57 H           3.1368   -0.2902   10.2029 H      10  UNL10       0.0521
     58 H           3.1369    0.0348   11.9642 H      10  UNL10       0.0521
     59 H           3.1468   -1.6439   11.3634 H      10  UNL10       0.0521
     60 H           5.2036    0.2861   11.0073 H      10  UNL10       0.2090
     61 O           3.1640   -0.2718   14.4060 O.3    11  UNL11      -0.3982
     62 C           1.7482   -0.2718   14.4060 C.3    11  UNL11       0.0330
     63 H           1.3829    0.7336   14.1822 H      11  UNL11       0.0521
     64 H           1.3830   -0.5944   15.3840 H      11  UNL11       0.0521
     65 H           1.3929   -0.9650   13.6400 H      11  UNL11       0.0521
     66 H           3.4497    0.3519   15.0951 H      11  UNL11       0.2090
     67 O           4.6718    2.8418    1.4156 O.3    12  UNL12      -0.3982
     68 C           3.2560    2.8418    1.4156 C.3    12  UNL12       0.0330
     69 H           2.8907    3.1795    0.4426 H      12  UNL12       0.0521
     70 H           2.8908    3.5045    2.2039 H      12  UNL12       0.0521
     71 H           2.9007    1.8258    1.6031 H      12  UNL12       0.0521
     72 H           4.9575    3.7558    1.2470 H      12  UNL12       0.2090
     73 O           3.2460    2.9167    4.7277 O.3    13  UNL13      -0.3982
     74 C           1.8302    2.9167    4.7277 C.3    13  UNL13       0.0330
     75 H           1.4649    3.9221    4.5040 H      13  UNL13       0.0521
     76 H           1.4650    2.5940    5.7058 H      13  UNL13       0.0521
     77 H           1.4749    2.2234    3.9617 H      13  UNL13       0.0521
     78 H           3.5317    3.5404    5.4169 H      13  UNL13       0.2090
     79 O           4.7122    1.1491    8.5348 O.3    14  UNL14      -0.3982
     80 C           3.8686    1.8316    7.6255 C.3    14  UNL14       0.0330
     81 H           4.2457    2.8451    7.4676 H      14  UNL14       0.0521
     82 H           2.8527    1.8677    8.0264 H      14  UNL14       0.0521
     83 H           3.8636    1.2948    6.6740 H      14  UNL14       0.0521
     84 H           4.6965    1.6484    9.3690 H      14  UNL14       0.2090
     85 O           3.3983    2.5161   11.2788 O.3    15  UNL15      -0.3982
     86 C           1.9825    2.5161   11.2788 C.3    15  UNL15       0.0330
     87 H           1.6172    2.2481   10.2843 H      15  UNL15       0.0521
     88 H           1.6173    3.5074   11.5579 H      15  UNL15       0.0521
     89 H           1.6272    1.7815   12.0053 H      15  UNL15       0.0521
     90 H           3.6840    3.1770   10.6253 H      15  UNL15       0.2090
     91 O           4.5312    3.4082   14.4372 O.3    16  UNL16      -0.3982
     92 C           3.1154    3.4082   14.4372 C.3    16  UNL16       0.0330
     93 H           2.7501    3.7459   13.4641 H      16  UNL16       0.0521
     94 H           2.7502    4.0709   15.2255 H      16  UNL16       0.0521
     95 H           2.7601    2.3922   14.6247 H      16  UNL16       0.0521
     96 H           4.8169    4.3222   14.2685 H      16  UNL16       0.2090
     97 O           3.5351    2.1195   17.5067 O.3    17  UNL17      -0.3982
     98 C           2.1193    2.1195   17.5067 C.3    17  UNL17       0.0330
     99 H           1.7540    1.1325   17.2123 H      17  UNL17       0.0521
    100 H           1.7541    2.8778   16.8097 H      17  UNL17       0.0521
    101 H           1.7640    2.3518   18.5133 H      17  UNL17       0.0521
    102 H           3.8208    1.9106   16.6010 H      17  UNL17       0.2090
    103 O           2.9336    2.2998   20.6711 O.3    18  UNL18      -0.3982
    104 C           1.8136    2.2998   21.5371 C.3    18  UNL18       0.0330
    105 H           1.9437    1.5308   22.3026 H      18  UNL18       0.0521
    106 H           0.9061    2.1051   20.9605 H      18  UNL18       0.0521
    107 H           1.7351    3.2784   22.0165 H      18  UNL18       0.0521
    108 H           2.9774    1.4194   20.2606 H      18  UNL18       0.2090
    109 O           1.9623    3.5303   24.5077 O.3    19  UNL19      -0.3982
    110 C           2.5186    3.5303   25.8097 C.3    19  UNL19       0.0330
    111 H           3.2922    2.7613   25.8764 H      19  UNL19       0.0521
    112 H           1.7321    3.3356   26.5428 H      19  UNL19       0.0521
    113 H           2.9627    4.5089   26.0063 H      19  UNL19       0.0521
    114 H           1.5761    2.6499   24.3620 H      19  UNL19       0.2090
    115 O           3.4335    6.4648    1.4641 O.3    20  UNL20      -0.3982
    116 C           2.0177    6.4648    1.4641 C.3    20  UNL20       0.0330
    117 H           1.6524    5.6958    2.1493 H      20  UNL20       0.0521
    118 H           1.6525    6.2701    0.4528 H      20  UNL20       0.0521
    119 H           1.6624    7.4434    1.7953 H      20  UNL20       0.0521
    120 H           3.7192    5.5844    1.1661 H      20  UNL20       0.2090
    121 O           2.0578    5.9100    8.2116 O.3    21  UNL21      -0.3982
    122 C           3.4579    6.1206    8.2116 C.3    21  UNL21       0.0330
    123 H           3.8694    5.8410    7.2385 H      21  UNL21       0.0521
    124 H           3.9176    5.5196    8.9999 H      21  UNL21       0.0521
    125 H           3.6581    7.1781    8.3991 H      21  UNL21       0.0521
    126 H           1.9113    4.9636    8.0429 H      21  UNL21       0.2090
    127 O           3.7382    7.1353   14.8879 O.3    22  UNL22      -0.3982
    128 C           2.3224    7.1353   14.8879 C.3    22  UNL22       0.0330
    129 H           1.9571    6.1078   14.9596 H      22  UNL22       0.0521
    130 H           1.9572    7.5999   13.9688 H      22  UNL22       0.0521
    131 H           1.9671    7.7069   15.7485 H      22  UNL22       0.0521
    132 H           4.0239    6.6211   14.1137 H      22  UNL22       0.2090
    133 O           2.6574    5.3437   18.5123 O.3    23  UNL23      -0.3982
    134 C           3.8938    5.3437   17.8226 C.3    23  UNL23       0.0330
    135 H           3.8790    4.5747   17.0462 H      23  UNL23       0.0521
    136 H           4.7054    5.1490   18.5278 H      23  UNL23       0.0521
    137 H           4.0427    6.3223   17.3602 H      23  UNL23       0.0521
    138 H           2.5531    4.4633   18.9117 H      23  UNL23       0.2090
    139 O           3.3437    7.1861   25.5467 O.3    24  UNL24      -0.3982
    140 C           1.9279    7.1861   25.5467 C.3    24  UNL24       0.0330
    141 H           1.5626    6.1586   25.6184 H      24  UNL24       0.0521
    142 H           1.5627    7.6507   24.6275 H      24  UNL24       0.0521
    143 H           1.5726    7.7577   26.4073 H      24  UNL24       0.0521
    144 H           3.6294    6.6719   24.7724 H      24  UNL24       0.2090
    145 O           7.2832   -0.4667    0.8945 O.3    25  UNL25      -0.3982
    146 C           5.9579   -0.4667    1.3926 C.3    25  UNL25       0.0330
    147 H           5.8570   -1.2357    2.1626 H      25  UNL25       0.0521
    148 H           5.2602   -0.6614    0.5745 H      25  UNL25       0.0521
    149 H           5.7418    0.5119    1.8277 H      25  UNL25       0.0521
    150 H           7.4458   -1.3471    0.5151 H      25  UNL25       0.2090
    151 O           7.7724   -0.3964   14.7865 O.3    26  UNL26      -0.3982
    152 C           6.3566   -0.3964   14.7865 C.3    26  UNL26       0.0330
    153 H           5.9913   -1.1654   15.4717 H      26  UNL26       0.0521
    154 H           5.9914   -0.5911   13.7752 H      26  UNL26       0.0521
    155 H           6.0013    0.5822   15.1177 H      26  UNL26       0.0521
    156 H           8.0581   -1.2768   14.4885 H      26  UNL26       0.2090
    157 O           7.7151    4.1859    5.1977 O.3    27  UNL27      -0.3982
    158 C           6.5951    3.3199    5.1977 C.3    27  UNL27       0.0330
    159 H           6.4700    2.8844    4.2032 H      27  UNL27       0.0521
    160 H           5.6998    3.8807    5.4768 H      27  UNL27       0.0521
    161 H           6.7633    2.5214    5.9242 H      27  UNL27       0.0521
    162 H           7.5369    4.8835    4.5442 H      27  UNL27       0.2090
    163 O           7.3795    4.8720   11.3458 O.3    28  UNL28      -0.3982
    164 C           6.2594    4.0060   11.3458 C.3    28  UNL28       0.0330
    165 H           6.1236    3.5844   12.3449 H      28  UNL28       0.0521
    166 H           6.4169    3.2052   10.6191 H      28  UNL28       0.0521
    167 H           5.3695    4.5761   11.0692 H      28  UNL28       0.0521
    168 H           8.1533    4.3383   11.5946 H      28  UNL28       0.2090
    169 O           7.4405    3.7309   18.9407 O.3    29  UNL29      -0.3982
    170 C           6.3204    2.8649   18.9407 C.3    29  UNL29       0.0330
    171 H           6.0857    2.5712   17.9146 H      29  UNL29       0.0521
    172 H           5.4647    3.3746   19.3900 H      29  UNL29       0.0521
    173 H           6.5599    1.9743   19.5265 H      29  UNL29       0.0521
    174 H           7.1982    4.5113   18.4137 H      29  UNL29       0.2090
    175 O           4.7388    4.4501   21.7013 O.3    30  UNL30      -0.3982
    176 C           5.9752    3.8478   22.0373 C.3    30  UNL30       0.0330
    177 H           5.9196    2.7721   21.8528 H      30  UNL30       0.0521
    178 H           6.1993    4.0366   23.0900 H      30  UNL30       0.0521
    179 H           6.7622    4.2816   21.4160 H      30  UNL30       0.0521
    180 H           4.0603    4.0454   22.2683 H      30  UNL30       0.2090
    181 O           7.0927    1.8183   24.6686 O.3    31  UNL31      -0.3982
    182 C           5.6769    1.8183   24.6686 C.3    31  UNL31       0.0330
    183 H           5.3116    1.6113   23.6596 H      31  UNL31       0.0521
    184 H           5.3117    2.7909   25.0074 H      31  UNL31       0.0521
    185 H           5.3216    1.0410   25.3490 H      31  UNL31       0.0521
    186 H           7.3784    2.5178   24.0564 H      31  UNL31       0.2090
    187 O           7.8808    5.9180   25.9533 O.3    32  UNL32      -0.3982
    188 C           6.7607    5.9180   25.0873 C.3    32  UNL32       0.0330
    189 H           6.0526    5.1490   25.4059 H      32  UNL32       0.0521
    190 H           7.0904    5.7233   24.0638 H      32  UNL32       0.0521
    191 H           6.2771    6.8966   25.1320 H      32  UNL32       0.0521
    192 H           8.2891    5.0376   25.8923 H      32  UNL32       0.2090
@<TRIPOS>BOND
     1     1     2    1
     2     1     6    1
     3     2     3    1
     4     2     4    1
     5     2     5    1
     6     7     8    1
     7     7    12    1
     8     8     9    1
     9     8    10    1
    10     8    11    1
    11    13    14    1
    12    13    18    1
    13    14    15    1
    14    14    16    1
    15    14    17    1
    16    19    20    1
    17    19    24    1
    18    20    21    1
    19    20    22    1
    20    20    23    1
    21    25    26    1
    22    25    30    1
    23    26    27    1
    24    26    28    1
    25    26    29    1
    26    31    32    1
    27    31    36    1
    28    32    33    1
    29    32    34    1
    30    32    35    1
    31    37    38    1
    32    37    42    1
    33    38    39    1
    34    38    40    1
    35    38    41    1
    36    43    44    1
    37    43    48    1
    38    44    45    1
    39    44    46    1
    40    44    47    1
    41    49    50    1
    42    49    54    1
    43    50    51    1
    44    50    52    1
    45    50    53    1
    46    55    56    1
    47    55    60    1
    48    56    57    1
    49    56    58    1
    50    56    59    1
    51    61    62    1
    52    61    66    1
    53    62    63    1
    54    62    64    1
    55    62    65    1
    56    67    68    1
    57    67    72    1
    58    68    69    1
    59    68    70    1
    60    68    71    1
    61    73    74    1
    62    73    78    1
    63    74    75    1
    64    74    76    1
    65    74    77    1
    66    79    80    1
    67    79    84    1
    68    80    81    1
    69    80    82    1
    70    80    83    1
    71    85    86    1
    72    85    90    1
    73    86    87    1
    74    86    88    1
    75    86    89    1
    76    91    92    1
    77    91    96    1
    78    92    93    1
    79    92    94    1
    80    92    95    1
    81    97    98    1
    82    97   102    1
    83    98    99    1
    84    98   100    1
    85    98   101    1
    86   103   104    1
    87   103   108    1
    88   104   105    1
    89   104   106    1
    90   104   107    1
    91   109   110    1
    92   109   114    1
    93   110   111    1
    94   110   112    1
    95   110   113    1
    96   115   116    1
    97   115   120    1
    98   116   117    1
    99   116   118    1
   100   116   119    1
   101   121   122    1
   102   121   126    1
   103   122   123    1
   104   122   124    1
   105   122   125    1
   106   127   128    1
   107   127   132    1
   108   128   129    1
   109   128   130    1
   110   128   131    1
   111   133   134    1
   112   133   138    1
   113   134   135    1
   114   134   136    1
   115   134   137    1
   116   139   140    1
   117   139   144    1
   118   140   141    1
   119   140   142    1
   120   140   143    1
   121   145   146    1
   122   145   150    1
   123   146   147    1
   124   146   148    1
   125   146   149    1
   126   151   152    1
   127   151   156    1
   128   152   153    1
   129   152   154    1
   130   152   155    1
   131   157   158    1
   132   157   162    1
   133   158   159    1
   134   158   160    1
   135   158   161    1
   136   163   164    1
   137   163   168    1
   138   164   165    1
   139   164   166    1
   140   164   167    1
   141   169   170    1
   142   169   174    1
   143   170   171    1
   144   170   172    1
   145   170   173    1
   146   175   176    1
   147   175   180    1
   148   176   177    1
   149   176   178    1
   150   176   179    1
   151   181   182    1
   152   181   186    1
   153   182   183    1
   154   182   184    1
   155   182   185    1
   156   187   188    1
   157   187   192    1
   158   188   189    1
   159   188   190    1
   160   188   191    1
