@<TRIPOS>MOLECULE
*****
 972 810 0 0 0
SMALL
GASTEIGER

@<TRIPOS>ATOM
      1 O          -1.9385    0.3195   -2.0335 O.3     1  UNL1       -0.3982
      2 C          -0.6275    0.3195   -1.4989 C.3     1  UNL1        0.0330
      3 H          -0.0305   -0.4495   -1.9955 H       1  UNL1        0.0521
      4 H          -0.6711    0.1248   -0.4246 H       1  UNL1        0.0521
      5 H          -0.1734    1.2981   -1.6715 H       1  UNL1        0.0521
      6 H          -2.3155   -0.5609   -1.8654 H       1  UNL1        0.2090
      7 O          -0.6966    0.7927    8.1635 O.3     2  UNL2       -0.3982
      8 C          -1.1987    0.1057    7.0319 C.3     2  UNL2        0.0330
      9 H          -1.3883   -0.9385    7.2929 H       2  UNL2        0.0521
     10 H          -0.4720    0.1627    6.2179 H       2  UNL2        0.0521
     11 H          -2.1332    0.5756    6.7167 H       2  UNL2        0.0521
     12 H           0.1322    0.3534    8.4199 H       2  UNL2        0.2090
     13 O           0.1178    0.3195   14.3697 O.3     3  UNL3       -0.3982
     14 C          -1.2980    0.3195   14.3697 C.3     3  UNL3        0.0330
     15 H          -1.6633   -0.4495   15.0549 H       3  UNL3        0.0521
     16 H          -1.6632    0.1248   13.3584 H       3  UNL3        0.0521
     17 H          -1.6533    1.2981   14.7009 H       3  UNL3        0.0521
     18 H           0.4035   -0.5609   14.0717 H       3  UNL3        0.2090
     19 O          -0.6978    2.4852   -0.7551 O.3     4  UNL4       -0.3982
     20 C          -0.9297    2.4852    0.6416 C.3     4  UNL4        0.0330
     21 H          -2.0018    2.3965    0.8339 H       4  UNL4        0.0521
     22 H          -0.5463    3.4120    1.0754 H       4  UNL4        0.0521
     23 H          -0.4100    1.6342    1.0880 H       4  UNL4        0.0521
     24 H          -1.1708    3.2509   -1.1233 H       4  UNL4        0.2090
     25 O           0.1178    0.7549    2.6802 O.3     5  UNL5       -0.3982
     26 C          -1.2980    0.7549    2.6802 C.3     5  UNL5        0.0330
     27 H          -1.6633   -0.0141    3.3654 H       5  UNL5        0.0521
     28 H          -1.6632    0.5602    1.6689 H       5  UNL5        0.0521
     29 H          -1.6533    1.7335    3.0114 H       5  UNL5        0.0521
     30 H           0.4035   -0.1255    2.3822 H       5  UNL5        0.2090
     31 O           0.1178    0.6759    4.8347 O.3     6  UNL6       -0.3982
     32 C          -1.2980    0.6759    4.8347 C.3     6  UNL6        0.0330
     33 H          -1.6633    1.2258    5.7055 H       6  UNL6        0.0521
     34 H          -1.6632   -0.3537    4.8611 H       6  UNL6        0.0521
     35 H          -1.6533    1.1629    3.9236 H       6  UNL6        0.0521
     36 H           0.4035    0.2377    5.6544 H       6  UNL6        0.2090
     37 O          -1.6268    1.3348    9.6244 O.3     7  UNL7       -0.3982
     38 C          -0.7795    0.2158    9.4386 C.3     7  UNL7        0.0330
     39 H          -1.1099   -0.6034   10.0821 H       7  UNL7        0.0521
     40 H           0.2492    0.4923    9.6819 H       7  UNL7        0.0521
     41 H          -0.8322   -0.1002    8.3941 H       7  UNL7        0.0521
     42 H          -1.5591    1.5923   10.5596 H       7  UNL7        0.2090
     43 O          -1.6432    2.7549   10.9476 O.3     8  UNL8       -0.3982
     44 C          -0.7959    2.7549    9.8133 C.3     8  UNL8        0.0330
     45 H          -1.1262    1.9859    9.1106 H       8  UNL8        0.0521
     46 H           0.2329    2.5602   10.1260 H       8  UNL8        0.0521
     47 H          -0.8486    3.7335    9.3305 H       8  UNL8        0.0521
     48 H          -1.5754    1.8745   11.3548 H       8  UNL8        0.2090
     49 O          -1.6432    2.9403    3.4659 O.3     9  UNL9       -0.3982
     50 C          -0.7959    2.9403    2.3316 C.3     9  UNL9        0.0330
     51 H          -1.1262    2.1713    1.6289 H       9  UNL9        0.0521
     52 H           0.2329    2.7456    2.6442 H       9  UNL9        0.0521
     53 H          -0.8486    3.9189    1.8487 H       9  UNL9        0.0521
     54 H          -1.5754    2.0599    3.8731 H       9  UNL9        0.2090
     55 O          -1.6432    3.1266    8.1417 O.3    10  UNL10      -0.3982
     56 C          -0.7959    3.1266    7.0074 C.3    10  UNL10       0.0330
     57 H          -1.1262    2.3576    6.3047 H      10  UNL10       0.0521
     58 H           0.2329    2.9319    7.3200 H      10  UNL10       0.0521
     59 H          -0.8486    4.1052    6.5245 H      10  UNL10       0.0521
     60 H          -1.5754    2.2462    8.5489 H      10  UNL10       0.2090
     61 O           0.0936    5.0730    7.6940 O.3    11  UNL11      -0.3982
     62 C          -1.3222    5.0730    7.6940 C.3    11  UNL11       0.0330
     63 H          -1.6875    5.5793    6.7971 H      11  UNL11       0.0521
     64 H          -1.6874    5.5841    8.5882 H      11  UNL11       0.0521
     65 H          -1.6775    4.0399    7.6969 H      11  UNL11       0.0521
     66 H           0.3793    6.0024    7.6915 H      11  UNL11       0.2090
     67 O          -1.4885    4.0967   10.4695 O.3    12  UNL12      -0.3982
     68 C          -0.6412    5.2310   10.4695 C.3    12  UNL12       0.0330
     69 H          -1.0387    5.9839   11.1547 H      12  UNL12       0.0521
     70 H          -0.5786    5.6401    9.4582 H      12  UNL12       0.0521
     71 H           0.3554    4.9300   10.8007 H      12  UNL12       0.0521
     72 H          -2.3648    4.3947   10.1715 H      12  UNL12       0.2090
     73 O           0.1178    4.9206   14.4072 O.3    13  UNL13      -0.3982
     74 C          -1.2980    4.9206   14.4072 C.3    13  UNL13       0.0330
     75 H          -1.6633    4.8319   13.3810 H      13  UNL13       0.0521
     76 H          -1.6632    5.8474   14.8564 H      13  UNL13       0.0521
     77 H          -1.6533    4.0696   14.9930 H      13  UNL13       0.0521
     78 H           0.4035    5.6863   13.8802 H      13  UNL13       0.2090
     79 O          -0.2957    4.9471   17.5151 O.3    14  UNL14      -0.3982
     80 C          -1.0870    5.2601   16.3835 C.3    14  UNL14       0.0330
     81 H          -2.1452    5.1808   16.6445 H      14  UNL14       0.0521
     82 H          -0.8489    4.5711   15.5695 H      14  UNL14       0.0521
     83 H          -0.8674    6.2828   16.0683 H      14  UNL14       0.0521
     84 H          -0.5123    4.0345   17.7715 H      14  UNL14       0.2090
     85 O           0.1178    4.9986   18.8519 O.3    15  UNL15      -0.3982
     86 C          -1.2980    4.9986   18.8519 C.3    15  UNL15       0.0330
     87 H          -1.6633    6.0078   19.0579 H      15  UNL15       0.0521
     88 H          -1.6632    4.3049   19.6131 H      15  UNL15       0.0521
     89 H          -1.6533    4.6783   17.8696 H      15  UNL15       0.0521
     90 H           0.4035    5.2867   19.7355 H      15  UNL15       0.2090
     91 O          -0.3231    7.2657    1.1495 O.3    16  UNL16      -0.3982
     92 C          -1.0457    7.7151    0.0180 C.3    16  UNL16       0.0330
     93 H          -2.1011    7.8263    0.2790 H      16  UNL16       0.0521
     94 H          -0.9346    6.9947   -0.7961 H      16  UNL16       0.0521
     95 H          -0.6467    8.6821   -0.2972 H      16  UNL16       0.0521
     96 H          -0.6994    6.4065    1.4060 H      16  UNL16       0.2090
     97 O           0.1178    5.3492    3.0575 O.3    17  UNL17      -0.3982
     98 C          -1.2980    5.3492    3.0575 C.3    17  UNL17       0.0330
     99 H          -1.6633    5.2605    2.0314 H      17  UNL17       0.0521
    100 H          -1.6632    6.2759    3.5068 H      17  UNL17       0.0521
    101 H          -1.6533    4.4982    3.6433 H      17  UNL17       0.0521
    102 H           0.4035    6.1148    2.5305 H      17  UNL17       0.2090
    103 O          -0.0049    4.9872    4.4599 O.3    18  UNL18      -0.3982
    104 C          -0.5070    6.1188    5.1469 C.3    18  UNL18       0.0330
    105 H          -0.8066    5.8295    6.1573 H      18  UNL18       0.0521
    106 H          -1.3635    6.5254    4.6038 H      18  UNL18       0.0521
    107 H           0.2780    6.8764    5.2049 H      18  UNL18       0.0521
    108 H          -0.7231    4.3327    4.4242 H      18  UNL18       0.2090
    109 O          -0.0228    7.6741   12.1417 O.3    19  UNL19      -0.3982
    110 C          -1.4386    7.6741   12.1417 C.3    19  UNL19       0.0330
    111 H          -1.8039    6.6586   11.9693 H      19  UNL19       0.0521
    112 H          -1.8038    8.3421   11.3579 H      19  UNL19       0.0521
    113 H          -1.7939    8.0268   13.1127 H      19  UNL19       0.0521
    114 H           0.2629    7.3568   11.2681 H      19  UNL19       0.2090
    115 O          -0.9097    6.8386   15.2033 O.3    20  UNL20      -0.3982
    116 C          -1.1416    7.7096   14.1115 C.3    20  UNL20       0.0330
    117 H          -1.2553    7.1248   13.1954 H      20  UNL20       0.0521
    118 H          -0.3025    8.4024   14.0124 H      20  UNL20       0.0521
    119 H          -2.0580    8.2749   14.2964 H      20  UNL20       0.0521
    120 H          -0.0908    6.3509   15.0108 H      20  UNL20       0.2090
    121 O          -0.6764    8.2738   19.6863 O.3    21  UNL21      -0.3982
    122 C          -1.0876    7.1361   18.9509 C.3    21  UNL21       0.0330
    123 H          -0.2552    6.7741   18.3421 H      21  UNL21       0.0521
    124 H          -1.9328    7.4007   18.3110 H      21  UNL21       0.0521
    125 H          -1.3930    6.3531   19.6489 H      21  UNL21       0.0521
    126 H          -0.4115    8.9509   19.0406 H      21  UNL21       0.2090
    127 O          -1.1103    8.4369    1.9527 O.3    22  UNL22      -0.3982
    128 C          -0.7173    7.3179    2.7260 C.3    22  UNL22       0.0330
    129 H          -1.4232    6.4987    2.5683 H      22  UNL22       0.0521
    130 H          -0.6938    7.5944    3.7829 H      22  UNL22       0.0521
    131 H           0.2803    7.0019    2.4121 H      22  UNL22       0.0521
    132 H          -1.9984    8.6944    2.2537 H      22  UNL22       0.2090
    133 O          -1.6588   10.7787    2.6366 O.3    23  UNL23      -0.3982
    134 C          -0.8115    9.6597    2.4508 C.3    23  UNL23       0.0330
    135 H          -1.1418    8.8405    3.0943 H      23  UNL23       0.0521
    136 H           0.2173    9.9362    2.6941 H      23  UNL23       0.0521
    137 H          -0.8642    9.3437    1.4063 H      23  UNL23       0.0521
    138 H          -1.5911   11.0362    3.5718 H      23  UNL23       0.2090
    139 O          -1.6283    8.5780    9.6230 O.3    24  UNL24      -0.3982
    140 C          -0.7810    7.4590    9.4372 C.3    24  UNL24       0.0330
    141 H          -1.1113    6.6398   10.0807 H      24  UNL24       0.0521
    142 H           0.2478    7.7356    9.6804 H      24  UNL24       0.0521
    143 H          -0.8337    7.1430    8.3927 H      24  UNL24       0.0521
    144 H          -1.5605    8.8355   10.5582 H      24  UNL24       0.2090
    145 O           0.3035   10.6194   10.2083 O.3    25  UNL25      -0.3982
    146 C          -0.6322    9.7388    9.6138 C.3    25  UNL25       0.0330
    147 H          -1.6401    9.9966    9.9484 H      25  UNL25       0.0521
    148 H          -0.3954    8.7099    9.8952 H      25  UNL25       0.0521
    149 H          -0.5745    9.8396    8.5274 H      25  UNL25       0.0521
    150 H           0.2291   10.5075   11.1714 H      25  UNL25       0.2090
    151 O          -0.0218    9.8321   16.5335 O.3    26  UNL26      -0.3982
    152 C          -1.4376    9.8321   16.5335 C.3    26  UNL26       0.0330
    153 H          -1.8029   10.4815   17.3329 H      26  UNL26       0.0521
    154 H          -1.8028    8.8129   16.6818 H      26  UNL26       0.0521
    155 H          -1.7929   10.2076   15.5710 H      26  UNL26       0.0521
    156 H           0.2639    9.4942   17.3994 H      26  UNL26       0.2090
    157 O          -0.6401    9.8696   20.0361 O.3    27  UNL27      -0.3982
    158 C          -0.8720    9.8696   18.6394 C.3    27  UNL27       0.0330
    159 H          -1.1351   10.8788   18.3128 H      27  UNL27       0.0521
    160 H          -1.6828    9.1760   18.4038 H      27  UNL27       0.0521
    161 H           0.0387    9.5493   18.1280 H      27  UNL27       0.0521
    162 H          -1.4651   10.1578   20.4627 H      27  UNL27       0.2090
    163 O          -1.6268   10.8871    1.1272 O.3    28  UNL28      -0.3982
    164 C          -0.7795   10.8871   -0.0070 C.3    28  UNL28       0.0330
    165 H          -1.1099   10.1181   -0.7098 H      28  UNL28       0.0521
    166 H           0.2492   10.6924    0.3056 H      28  UNL28       0.0521
    167 H          -0.8322   11.8657   -0.4899 H      28  UNL28       0.0521
    168 H          -1.5591   10.0067    1.5345 H      28  UNL28       0.2090
    169 O           0.1173   12.4965    0.9966 O.3    29  UNL29      -0.3982
    170 C          -1.2985   12.4965    0.9966 C.3    29  UNL29       0.0330
    171 H          -1.6638   11.7275    1.6818 H      29  UNL29       0.0521
    172 H          -1.6637   12.3018   -0.0147 H      29  UNL29       0.0521
    173 H          -1.6538   13.4751    1.3278 H      29  UNL29       0.0521
    174 H           0.4030   11.6161    0.6986 H      29  UNL29       0.2090
    175 O          -1.6432   11.0734    4.9479 O.3    30  UNL30      -0.3982
    176 C          -0.7959    9.9545    4.7621 C.3    30  UNL30       0.0330
    177 H          -1.1262    9.1353    5.4056 H      30  UNL30       0.0521
    178 H           0.2329   10.2310    5.0054 H      30  UNL30       0.0521
    179 H          -0.8486    9.6384    3.7176 H      30  UNL30       0.0521
    180 H          -1.5754   11.3309    5.8831 H      30  UNL30       0.2090
    181 O          -0.5772   11.8939    6.7259 O.3    31  UNL31      -0.3982
    182 C          -0.8406   13.0719    7.4659 C.3    31  UNL31       0.0330
    183 H           0.0861   13.4343    7.9179 H      31  UNL31       0.0521
    184 H          -1.5782   12.8577    8.2431 H      31  UNL31       0.0521
    185 H          -1.2366   13.8343    6.7910 H      31  UNL31       0.0521
    186 H          -0.2272   11.2363    7.3509 H      31  UNL31       0.2090
    187 O          -0.2794   11.6777    9.3882 O.3    32  UNL32      -0.3982
    188 C          -1.0706   12.8093    9.7013 C.3    32  UNL32       0.0330
    189 H          -1.2805   12.8229   10.7737 H      32  UNL32       0.0521
    190 H          -2.0054   12.7687    9.1367 H      32  UNL32       0.0521
    191 H          -0.5215   13.7134    9.4281 H      32  UNL32       0.0521
    192 H          -0.7924   10.8914    9.6415 H      32  UNL32       0.2090
    193 O          -1.7182   11.1813   14.6462 O.3    33  UNL33      -0.3982
    194 C          -0.6036   10.3454   14.3940 C.3    33  UNL33       0.0330
    195 H          -0.2165   10.5453   13.3917 H      33  UNL33       0.0521
    196 H          -0.9059    9.2987   14.4773 H      33  UNL33       0.0521
    197 H           0.1738   10.5577   15.1316 H      33  UNL33       0.0521
    198 H          -2.3909   10.9702   13.9765 H      33  UNL33       0.2090
    199 O           0.1178   12.4965   15.0962 O.3    34  UNL34      -0.3982
    200 C          -1.2980   12.4965   15.0962 C.3    34  UNL34       0.0330
    201 H          -1.6633   11.7275   15.7814 H      34  UNL34       0.0521
    202 H          -1.6632   12.3018   14.0849 H      34  UNL34       0.0521
    203 H          -1.6533   13.4751   15.4274 H      34  UNL34       0.0521
    204 H           0.4035   11.6161   14.7982 H      34  UNL34       0.2090
    205 O          -1.1417   15.5759    0.9835 O.3    35  UNL35      -0.3982
    206 C          -0.6915   14.5596    0.1067 C.3    35  UNL35       0.0330
    207 H          -1.0054   14.7922   -0.9139 H      35  UNL35       0.0521
    208 H          -1.1082   13.5983    0.4172 H      35  UNL35       0.0521
    209 H           0.3992   14.5119    0.1482 H      35  UNL35       0.0521
    210 H          -2.1122   15.5944    0.9252 H      35  UNL35       0.2090
    211 O           0.1181   12.8911    3.0251 O.3    36  UNL36      -0.3982
    212 C          -1.2977   12.8911    3.0251 C.3    36  UNL36       0.0330
    213 H          -1.6630   12.1221    3.7103 H      36  UNL36       0.0521
    214 H          -1.6629   12.6964    2.0138 H      36  UNL36       0.0521
    215 H          -1.6530   13.8697    3.3563 H      36  UNL36       0.0521
    216 H           0.4038   12.0107    2.7271 H      36  UNL36       0.2090
    217 O           0.1178   14.9319    7.3560 O.3    37  UNL37      -0.3982
    218 C          -1.2980   14.9319    7.3560 C.3    37  UNL37       0.0330
    219 H          -1.6633   14.1629    8.0412 H      37  UNL37       0.0521
    220 H          -1.6632   14.7372    6.3447 H      37  UNL37       0.0521
    221 H          -1.6533   15.9105    7.6872 H      37  UNL37       0.0521
    222 H           0.4035   14.0515    7.0580 H      37  UNL37       0.2090
    223 O          -0.0228   14.7753   11.7602 O.3    38  UNL38      -0.3982
    224 C          -1.4386   14.7753   11.7602 C.3    38  UNL38       0.0330
    225 H          -1.8039   14.8299   12.7887 H      38  UNL38       0.0521
    226 H          -1.8038   13.8640   11.2804 H      38  UNL38       0.0521
    227 H          -1.7939   15.6453   11.2030 H      38  UNL38       0.0521
    228 H           0.2629   13.9926   12.2614 H      38  UNL38       0.2090
    229 O          -1.4880   13.8383   14.3697 O.3    39  UNL39      -0.3982
    230 C          -0.6407   14.9726   14.3697 C.3    39  UNL39       0.0330
    231 H          -1.0382   15.7255   15.0549 H      39  UNL39       0.0521
    232 H          -0.5782   15.3817   13.3584 H      39  UNL39       0.0521
    233 H           0.3559   14.6716   14.7009 H      39  UNL39       0.0521
    234 H          -2.3643   14.1363   14.0717 H      39  UNL39       0.2090
    235 O          -1.6429   14.4242    9.9239 O.3    40  UNL40      -0.3982
    236 C          -0.7956   15.5431    9.7381 C.3    40  UNL40       0.0330
    237 H          -1.1260   16.1104    8.8644 H      40  UNL40       0.0521
    238 H           0.2331   15.2028    9.5973 H      40  UNL40       0.0521
    239 H          -0.8484   16.1797   10.6244 H      40  UNL40       0.0521
    240 H          -1.5752   13.8782    9.1221 H      40  UNL40       0.2090
    241 O           0.1017   17.2142   10.2582 O.3    41  UNL41      -0.3982
    242 C          -1.3141   17.2142   10.2582 C.3    41  UNL41       0.0330
    243 H          -1.6794   16.4123    9.6119 H      41  UNL41       0.0521
    244 H          -1.6793   18.1799    9.9005 H      41  UNL41       0.0521
    245 H          -1.6694   17.0477   11.2779 H      41  UNL41       0.0521
    246 H           0.3874   17.3639    9.3409 H      41  UNL41       0.2090
    247 O           0.1178   17.3673   14.3697 O.3    42  UNL42      -0.3982
    248 C          -1.2980   17.3673   14.3697 C.3    42  UNL42       0.0330
    249 H          -1.6633   16.5983   15.0549 H      42  UNL42       0.0521
    250 H          -1.6632   17.1726   13.3584 H      42  UNL42       0.0521
    251 H          -1.6533   18.3459   14.7009 H      42  UNL42       0.0521
    252 H           0.4035   16.4869   14.0717 H      42  UNL42       0.2090
    253 O          -0.0820   15.1925   16.3323 O.3    43  UNL43      -0.3982
    254 C          -1.1531   16.0639   16.6453 C.3    43  UNL43       0.0330
    255 H          -1.1778   16.2397   17.7237 H      43  UNL43       0.0521
    256 H          -2.0949   15.6178   16.3165 H      43  UNL43       0.0521
    257 H          -1.0017   17.0135   16.1269 H      43  UNL43       0.0521
    258 H          -0.2439   14.3590   16.8063 H      43  UNL43       0.2090
    259 O          -0.6764   18.0899   18.4034 O.3    44  UNL44      -0.3982
    260 C          -1.0876   17.0918   19.3194 C.3    44  UNL44       0.0330
    261 H          -0.2552   16.4116   19.5165 H      44  UNL44       0.0521
    262 H          -1.9328   16.5392   18.9022 H      44  UNL44       0.0521
    263 H          -1.3930   17.5704   20.2528 H      44  UNL44       0.0521
    264 H          -0.4115   17.6355   17.5855 H      44  UNL44       0.2090
    265 O          -0.3363   19.0383   -0.4702 O.3    45  UNL45      -0.3982
    266 C          -0.5682   19.0383    0.9265 C.3    45  UNL45       0.0330
    267 H          -1.1308   19.9334    1.2033 H      45  UNL45       0.0521
    268 H           0.3877   19.0177    1.4554 H      45  UNL45       0.0521
    269 H          -1.1474   18.1504    1.1905 H      45  UNL45       0.0521
    270 H           0.1792   19.8372   -0.6742 H      45  UNL45       0.2090
    271 O          -0.2952   18.8048    2.7511 O.3    46  UNL46      -0.3982
    272 C          -1.0865   19.9787    2.7692 C.3    46  UNL46       0.0330
    273 H          -2.1447   19.7061    2.7581 H      46  UNL46       0.0521
    274 H          -0.8484   20.5931    1.8975 H      46  UNL46       0.0521
    275 H          -0.8669   20.5412    3.6797 H      46  UNL46       0.0521
    276 H          -0.5118   18.3269    1.9324 H      46  UNL46       0.2090
    277 O          -1.5356   18.2618    7.7853 O.3    47  UNL47      -0.3982
    278 C          -0.2246   18.0890    7.2795 C.3    47  UNL47       0.0330
    279 H           0.3723   18.9772    7.5009 H      47  UNL47       0.0521
    280 H          -0.2683   17.9260    6.1999 H      47  UNL47       0.0521
    281 H           0.2294   17.2187    7.7590 H      47  UNL47       0.0521
    282 H          -1.9127   19.0406    7.3417 H      47  UNL47       0.2090
    283 O          -1.1993   18.9924    8.8148 O.3    48  UNL48      -0.3982
    284 C          -1.0605   19.8283    7.6805 C.3    48  UNL48       0.0330
    285 H          -0.3560   19.3764    6.9778 H      48  UNL48       0.0521
    286 H          -0.6999   20.8112    7.9931 H      48  UNL48       0.0521
    287 H          -2.0345   19.9366    7.1976 H      48  UNL48       0.0521
    288 H          -0.3197   18.9150    9.2220 H      48  UNL48       0.2090
    289 O           0.1178   19.6339   14.4711 O.3    49  UNL49      -0.3982
    290 C          -1.2980   19.6339   14.4711 C.3    49  UNL49       0.0330
    291 H          -1.6633   18.8320   13.8248 H      49  UNL49       0.0521
    292 H          -1.6632   20.5997   14.1134 H      49  UNL49       0.0521
    293 H          -1.6533   19.4675   15.4908 H      49  UNL49       0.0521
    294 H           0.4035   19.7837   13.5538 H      49  UNL49       0.2090
    295 O           0.1552   18.2050   16.5144 O.3    50  UNL50      -0.3982
    296 C          -1.2606   18.2050   16.5144 C.3    50  UNL50       0.0330
    297 H          -1.6259   19.2142   16.7205 H      50  UNL50       0.0521
    298 H          -1.6258   17.5113   17.2757 H      50  UNL50       0.0521
    299 H          -1.6159   17.8847   15.5322 H      50  UNL50       0.0521
    300 H           0.4409   18.4931   17.3981 H      50  UNL50       0.2090
    301 O          -0.0367   20.4491   18.8277 O.3    51  UNL51      -0.3982
    302 C          -0.8295   19.3113   19.1129 C.3    51  UNL51       0.0330
    303 H          -1.2937   18.9494   18.1921 H      51  UNL51       0.0521
    304 H          -1.5992   19.5760   19.8419 H      51  UNL51       0.0521
    305 H          -0.1909   18.5284   19.5285 H      51  UNL51       0.0521
    306 H          -0.6302   21.1262   18.4606 H      51  UNL51       0.2090
    307 O          -1.6425   20.5362    5.8179 O.3    52  UNL52      -0.3982
    308 C          -0.7952   20.5362    4.6837 C.3    52  UNL52       0.0330
    309 H          -1.1255   19.7672    3.9809 H      52  UNL52       0.0521
    310 H           0.2336   20.3415    4.9963 H      52  UNL52       0.0521
    311 H          -0.8479   21.5148    4.2008 H      52  UNL52       0.0521
    312 H          -1.5747   19.6558    6.2252 H      52  UNL52       0.2090
    313 O          -0.4733   22.4111    8.2273 O.3    53  UNL53      -0.3982
    314 C          -1.2645   22.0981    7.0957 C.3    53  UNL53       0.0330
    315 H          -1.3762   21.0139    7.0167 H      53  UNL53       0.0521
    316 H          -0.7868   22.4925    6.1956 H      53  UNL53       0.0521
    317 H          -2.2495   22.5561    7.2132 H      53  UNL53       0.0521
    318 H           0.3939   21.9916    8.0944 H      53  UNL53       0.2090
    319 O           0.1178   21.9684    9.7314 O.3    54  UNL54      -0.3982
    320 C          -1.2980   21.9684    9.7314 C.3    54  UNL54       0.0330
    321 H          -1.6633   21.8797    8.7052 H      54  UNL54       0.0521
    322 H          -1.6632   22.8952   10.1806 H      54  UNL54       0.0521
    323 H          -1.6533   21.1174   10.3172 H      54  UNL54       0.0521
    324 H           0.4035   22.7341    9.2044 H      54  UNL54       0.2090
    325 O           0.1178   20.2381   12.0318 O.3    55  UNL55      -0.3982
    326 C          -1.2980   20.2381   12.0318 C.3    55  UNL55       0.0330
    327 H          -1.6633   19.4691   12.7170 H      55  UNL55       0.0521
    328 H          -1.6632   20.0434   11.0205 H      55  UNL55       0.0521
    329 H          -1.6533   21.2167   12.3630 H      55  UNL55       0.0521
    330 H           0.4035   19.3577   11.7338 H      55  UNL55       0.2090
    331 O           0.1176   22.2381   14.3697 O.3    56  UNL56      -0.3982
    332 C          -1.2982   22.2381   14.3697 C.3    56  UNL56       0.0330
    333 H          -1.6635   21.4691   15.0549 H      56  UNL56       0.0521
    334 H          -1.6634   22.0434   13.3584 H      56  UNL56       0.0521
    335 H          -1.6535   23.2167   14.7009 H      56  UNL56       0.0521
    336 H           0.4033   21.3577   14.0717 H      56  UNL56       0.2090
    337 O          -0.6648   22.2402   19.9567 O.3    57  UNL57      -0.3982
    338 C          -1.4561   22.1529   18.7859 C.3    57  UNL57       0.0330
    339 H          -1.6546   21.1030   18.5566 H      57  UNL57       0.0521
    340 H          -0.9296   22.6256   17.9532 H      57  UNL57       0.0521
    341 H          -2.4024   22.6714   18.9571 H      57  UNL57       0.0521
    342 H           0.1675   21.7717   19.7746 H      57  UNL57       0.2090
    343 O           0.1178   24.4038    0.3798 O.3    58  UNL58      -0.3982
    344 C          -1.2980   24.4038    0.3798 C.3    58  UNL58       0.0330
    345 H          -1.6633   24.3151   -0.6464 H      58  UNL58       0.0521
    346 H          -1.6632   25.3306    0.8290 H      58  UNL58       0.0521
    347 H          -1.6533   23.5528    0.9656 H      58  UNL58       0.0521
    348 H           0.4035   25.1695   -0.1472 H      58  UNL58       0.2090
    349 O           0.1185   22.6735    2.6802 O.3    59  UNL59      -0.3982
    350 C          -1.2973   22.6735    2.6802 C.3    59  UNL59       0.0330
    351 H          -1.6626   21.9045    3.3654 H      59  UNL59       0.0521
    352 H          -1.6625   22.4788    1.6689 H      59  UNL59       0.0521
    353 H          -1.6526   23.6521    3.0114 H      59  UNL59       0.0521
    354 H           0.4042   21.7931    2.3822 H      59  UNL59       0.2090
    355 O           0.1181   22.6735    5.0181 O.3    60  UNL60      -0.3982
    356 C          -1.2977   22.6735    5.0181 C.3    60  UNL60       0.0330
    357 H          -1.6630   21.9045    5.7033 H      60  UNL60       0.0521
    358 H          -1.6629   22.4788    4.0068 H      60  UNL60       0.0521
    359 H          -1.6530   23.6521    5.3493 H      60  UNL60       0.0521
    360 H           0.4038   21.7931    4.7201 H      60  UNL60       0.2090
    361 O           0.1178   24.6730    7.3560 O.3    61  UNL61      -0.3982
    362 C          -1.2980   24.6730    7.3560 C.3    61  UNL61       0.0330
    363 H          -1.6633   23.9040    8.0412 H      61  UNL61       0.0521
    364 H          -1.6632   24.4783    6.3447 H      61  UNL61       0.0521
    365 H          -1.6533   25.6516    7.6872 H      61  UNL61       0.0521
    366 H           0.4035   23.7926    7.0580 H      61  UNL61       0.2090
    367 O           0.1176   24.6735    9.6939 O.3    62  UNL62      -0.3982
    368 C          -1.2982   24.6735    9.6939 C.3    62  UNL62       0.0330
    369 H          -1.6635   23.9045   10.3791 H      62  UNL62       0.0521
    370 H          -1.6634   24.4788    8.6826 H      62  UNL62       0.0521
    371 H          -1.6535   25.6521   10.0251 H      62  UNL62       0.0521
    372 H           0.4033   23.7931    9.3959 H      62  UNL62       0.2090
    373 O          -0.0347   24.2374   12.4973 O.3    63  UNL63      -0.3982
    374 C          -1.0975   24.6572   11.6614 C.3    63  UNL63       0.0330
    375 H          -1.6724   25.4379   12.1657 H      63  UNL63       0.0521
    376 H          -1.7420   23.8046   11.4340 H      63  UNL63       0.0521
    377 H          -0.6829   25.0557   10.7325 H      63  UNL63       0.0521
    378 H          -0.4332   23.8890   13.3129 H      63  UNL63       0.2090
    379 O           0.1178   24.6742   14.3697 O.3    64  UNL64      -0.3982
    380 C          -1.2980   24.6742   14.3697 C.3    64  UNL64       0.0330
    381 H          -1.6633   23.9053   15.0549 H      64  UNL64       0.0521
    382 H          -1.6632   24.4795   13.3584 H      64  UNL64       0.0521
    383 H          -1.6533   25.6528   14.7009 H      64  UNL64       0.0521
    384 H           0.4035   23.7938   14.0717 H      64  UNL64       0.2090
    385 O          -0.0149   24.3412   16.0003 O.3    65  UNL65      -0.3982
    386 C          -0.9799   24.5270   17.0195 C.3    65  UNL65       0.0330
    387 H          -1.8884   23.9744   16.7674 H      65  UNL65       0.0521
    388 H          -1.2044   25.5917   17.1202 H      65  UNL65       0.0521
    389 H          -0.5772   24.1510   17.9629 H      65  UNL65       0.0521
    390 H          -0.4003   24.6840   15.1760 H      65  UNL65       0.2090
    391 O          -1.5655   24.6735   18.1044 O.3    66  UNL66      -0.3982
    392 C          -0.7182   24.6735   19.2387 C.3    66  UNL66       0.0330
    393 H           0.0494   23.9045   19.1213 H      66  UNL66       0.0521
    394 H          -1.3098   24.4788   20.1365 H      66  UNL66       0.0521
    395 H          -0.2402   25.6521   19.3251 H      66  UNL66       0.0521
    396 H          -1.9752   23.7931   18.0539 H      66  UNL66       0.2090
    397 O           3.8993    0.3195    0.3423 O.3    67  UNL67      -0.3982
    398 C           2.4835    0.3195    0.3423 C.3    67  UNL67       0.0330
    399 H           2.1182   -0.4495    1.0275 H      67  UNL67       0.0521
    400 H           2.1183    0.1248   -0.6690 H      67  UNL67       0.0521
    401 H           2.1282    1.2981    0.6735 H      67  UNL67       0.0521
    402 H           4.1850   -0.5609    0.0443 H      67  UNL67       0.2090
    403 O           3.1402   -0.9010    4.6255 O.3    68  UNL68      -0.3982
    404 C           2.7839    0.4251    4.2806 C.3    68  UNL68       0.0330
    405 H           3.6851    0.9949    4.0407 H      68  UNL68       0.0521
    406 H           2.2572    0.8910    5.1170 H      68  UNL68       0.0521
    407 H           2.1275    0.4011    3.4076 H      68  UNL68       0.0521
    408 H           3.7222   -0.8475    5.4026 H      68  UNL68       0.2090
    409 O           3.0887    0.0069    5.2925 O.3    69  UNL69      -0.3982
    410 C           1.6729    0.0069    5.2925 C.3    69  UNL69       0.0330
    411 H           1.3076    0.4603    4.3676 H      69  UNL69       0.0521
    412 H           1.3077    0.5690    6.1554 H      69  UNL69       0.0521
    413 H           1.3176   -1.0243    5.3552 H      69  UNL69       0.0521
    414 H           3.3744    0.9347    5.2360 H      69  UNL69       0.2090
    415 O           3.8993    0.1280    7.1624 O.3    70  UNL70      -0.3982
    416 C           2.4835    0.1280    7.1624 C.3    70  UNL70       0.0330
    417 H           2.1182    1.1372    7.3684 H      70  UNL70       0.0521
    418 H           2.1183   -0.5656    7.9236 H      70  UNL70       0.0521
    419 H           2.1282   -0.1923    6.1801 H      70  UNL70       0.0521
    420 H           4.1850    0.4162    8.0460 H      70  UNL70       0.2090
    421 O           3.6903    0.9361    9.8445 O.3    71  UNL71      -0.3982
    422 C           2.8885   -0.1982    9.5707 C.3    71  UNL71       0.0330
    423 H           2.3201   -0.0306    8.6525 H      71  UNL71       0.0521
    424 H           2.2072   -0.3742   10.4067 H      71  UNL71       0.0521
    425 H           3.5363   -1.0685    9.4419 H      71  UNL71       0.0521
    426 H           3.0884    1.6919    9.9539 H      71  UNL71       0.2090
    427 O           3.8951    0.3195   12.0318 O.3    72  UNL72      -0.3982
    428 C           2.4793    0.3195   12.0318 C.3    72  UNL72       0.0330
    429 H           2.1140   -0.4495   12.7170 H      72  UNL72       0.0521
    430 H           2.1141    0.1248   11.0205 H      72  UNL72       0.0521
    431 H           2.1240    1.2981   12.3630 H      72  UNL72       0.0521
    432 H           4.1808   -0.5609   11.7338 H      72  UNL72       0.2090
    433 O           3.8993    0.0491   16.4013 O.3    73  UNL73      -0.3982
    434 C           2.4835    0.0491   16.4013 C.3    73  UNL73       0.0330
    435 H           2.1182   -0.0396   15.3752 H      73  UNL73       0.0521
    436 H           2.1183    0.9758   16.8506 H      73  UNL73       0.0521
    437 H           2.1282   -0.8019   16.9871 H      73  UNL73       0.0521
    438 H           4.1850    0.8147   15.8743 H      73  UNL73       0.2090
    439 O           3.8993    0.3195   20.0455 O.3    74  UNL74      -0.3982
    440 C           2.4835    0.3195   20.0455 C.3    74  UNL74       0.0330
    441 H           2.1182   -0.4495   20.7307 H      74  UNL74       0.0521
    442 H           2.1183    0.1248   19.0342 H      74  UNL74       0.0521
    443 H           2.1282    1.2981   20.3767 H      74  UNL74       0.0521
    444 H           4.1850   -0.5609   19.7475 H      74  UNL74       0.2090
    445 O           3.8993    2.4852    2.3798 O.3    75  UNL75      -0.3982
    446 C           2.4835    2.4852    2.3798 C.3    75  UNL75       0.0330
    447 H           2.1182    2.3965    1.3536 H      75  UNL75       0.0521
    448 H           2.1183    3.4120    2.8290 H      75  UNL75       0.0521
    449 H           2.1282    1.6342    2.9656 H      75  UNL75       0.0521
    450 H           4.1850    3.2509    1.8528 H      75  UNL75       0.2090
    451 O           2.8990    0.3650    2.4858 O.3    76  UNL76      -0.3982
    452 C           1.4832    0.3650    2.4858 C.3    76  UNL76       0.0330
    453 H           1.1179    1.3741    2.6918 H      76  UNL76       0.0521
    454 H           1.1180   -0.3287    3.2470 H      76  UNL76       0.0521
    455 H           1.1279    0.0447    1.5036 H      76  UNL76       0.0521
    456 H           3.1847    0.6531    3.3695 H      76  UNL76       0.2090
    457 O           3.8993    2.7549    5.0181 O.3    77  UNL77      -0.3982
    458 C           2.4835    2.7549    5.0181 C.3    77  UNL77       0.0330
    459 H           2.1182    1.9859    5.7033 H      77  UNL77       0.0521
    460 H           2.1183    2.5602    4.0068 H      77  UNL77       0.0521
    461 H           2.1282    3.7335    5.3493 H      77  UNL77       0.0521
    462 H           4.1850    1.8745    4.7201 H      77  UNL77       0.2090
    463 O           3.6915    3.1085    9.1202 O.3    78  UNL78      -0.3982
    464 C           2.2757    3.1085    9.1202 C.3    78  UNL78       0.0330
    465 H           1.9104    2.0930    8.9478 H      78  UNL78       0.0521
    466 H           1.9105    3.7765    8.3364 H      78  UNL78       0.0521
    467 H           1.9204    3.4612   10.0912 H      78  UNL78       0.0521
    468 H           3.9772    2.7911    8.2466 H      78  UNL78       0.2090
    469 O           2.8700    2.5987   10.2389 O.3    79  UNL79      -0.3982
    470 C           1.4542    2.5987   10.2389 C.3    79  UNL79       0.0330
    471 H           1.0889    1.5833   10.0665 H      79  UNL79       0.0521
    472 H           1.0890    3.2667    9.4550 H      79  UNL79       0.0521
    473 H           1.0989    2.9515   11.2099 H      79  UNL79       0.0521
    474 H           3.1557    2.2814    9.3652 H      79  UNL79       0.2090
    475 O           3.8993    2.4852   14.0693 O.3    80  UNL80      -0.3982
    476 C           2.4835    2.4852   14.0693 C.3    80  UNL80       0.0330
    477 H           2.1182    2.3965   13.0431 H      80  UNL80       0.0521
    478 H           2.1183    3.4120   14.5185 H      80  UNL80       0.0521
    479 H           2.1282    1.6342   14.6551 H      80  UNL80       0.0521
    480 H           4.1850    3.2509   13.5423 H      80  UNL80       0.2090
    481 O           2.8993    0.5634   14.1761 O.3    81  UNL81      -0.3982
    482 C           1.4835    0.5634   14.1761 C.3    81  UNL81       0.0330
    483 H           1.1182    1.5726   14.3821 H      81  UNL81       0.0521
    484 H           1.1183   -0.1302   14.9373 H      81  UNL81       0.0521
    485 H           1.1282    0.2431   13.1938 H      81  UNL81       0.0521
    486 H           3.1850    0.8516   15.0597 H      81  UNL81       0.2090
    487 O           3.8993    2.4857   16.7451 O.3    82  UNL82      -0.3982
    488 C           2.4835    2.4857   16.7451 C.3    82  UNL82       0.0330
    489 H           2.1182    2.3970   15.7189 H      82  UNL82       0.0521
    490 H           2.1183    3.4124   17.1943 H      82  UNL82       0.0521
    491 H           2.1282    1.6347   17.3309 H      82  UNL82       0.0521
    492 H           4.1850    3.2513   16.2181 H      82  UNL82       0.2090
    493 O           2.0618    3.3874   19.0455 O.3    83  UNL83      -0.3982
    494 C           2.9091    2.2531   19.0455 C.3    83  UNL83       0.0330
    495 H           3.7438    2.4206   19.7307 H      83  UNL83       0.0521
    496 H           3.2837    2.0770   18.0342 H      83  UNL83       0.0521
    497 H           2.3378    1.3828   19.3767 H      83  UNL83       0.0521
    498 H           2.5962    4.1431   18.7475 H      83  UNL83       0.2090
    499 O          -0.0742    5.1747   -0.7612 O.3    84  UNL84      -0.3982
    500 C          -0.3061    5.1747    0.6354 C.3    84  UNL84       0.0330
    501 H           0.3100    4.4057    1.1080 H      84  UNL84       0.0521
    502 H          -1.3635    4.9800    0.8301 H      84  UNL84       0.0521
    503 H          -0.0376    6.1533    1.0402 H      84  UNL84       0.0521
    504 H          -0.3213    4.2943   -1.0919 H      84  UNL84       0.2090
    505 O           3.8993    4.9988    2.4866 O.3    85  UNL85      -0.3982
    506 C           2.4835    4.9988    2.4866 C.3    85  UNL85       0.0330
    507 H           2.1182    6.0080    2.6926 H      85  UNL85       0.0521
    508 H           2.1183    4.3052    3.2478 H      85  UNL85       0.0521
    509 H           2.1282    4.6785    1.5043 H      85  UNL85       0.0521
    510 H           4.1850    5.2870    3.3702 H      85  UNL85       0.2090
    511 O           3.8993    4.9206    7.0556 O.3    86  UNL86      -0.3982
    512 C           2.4835    4.9206    7.0556 C.3    86  UNL86       0.0330
    513 H           2.1182    4.8319    6.0294 H      86  UNL86       0.0521
    514 H           2.1183    5.8474    7.5048 H      86  UNL86       0.0521
    515 H           2.1282    4.0696    7.6414 H      86  UNL86       0.0521
    516 H           4.1850    5.6863    6.5286 H      86  UNL86       0.2090
    517 O           2.8993    3.1825    7.3560 O.3    87  UNL87      -0.3982
    518 C           1.4835    3.1825    7.3560 C.3    87  UNL87       0.0330
    519 H           1.1182    2.4135    8.0412 H      87  UNL87       0.0521
    520 H           1.1183    2.9878    6.3447 H      87  UNL87       0.0521
    521 H           1.1282    4.1611    7.6872 H      87  UNL87       0.0521
    522 H           3.1850    2.3021    7.0580 H      87  UNL87       0.2090
    523 O           3.8993    5.1903    9.6939 O.3    88  UNL88      -0.3982
    524 C           2.4835    5.1903    9.6939 C.3    88  UNL88       0.0330
    525 H           2.1182    4.4213   10.3791 H      88  UNL88       0.0521
    526 H           2.1183    4.9956    8.6826 H      88  UNL88       0.0521
    527 H           2.1282    6.1689   10.0251 H      88  UNL88       0.0521
    528 H           4.1850    4.3099    9.3959 H      88  UNL88       0.2090
    529 O           3.7919    5.5671   12.9937 O.3    89  UNL89      -0.3982
    530 C           2.3761    5.5671   12.9937 C.3    89  UNL89       0.0330
    531 H           2.0108    6.1171   13.8645 H      89  UNL89       0.0521
    532 H           2.0109    4.5375   13.0201 H      89  UNL89       0.0521
    533 H           2.0208    6.0541   12.0825 H      89  UNL89       0.0521
    534 H           4.0776    5.1289   13.8133 H      89  UNL89       0.2090
    535 O           2.9139    4.8777   14.3465 O.3    90  UNL90      -0.3982
    536 C           1.4981    4.8777   14.3465 C.3    90  UNL90       0.0330
    537 H           1.1328    5.3311   13.4216 H      90  UNL90       0.0521
    538 H           1.1329    5.4398   15.2094 H      90  UNL90       0.0521
    539 H           1.1428    3.8465   14.4092 H      90  UNL90       0.0521
    540 H           3.1996    5.8055   14.2900 H      90  UNL90       0.2090
    541 O           3.8993    5.1903   16.7076 O.3    91  UNL91      -0.3982
    542 C           2.4835    5.1903   16.7076 C.3    91  UNL91       0.0330
    543 H           2.1182    4.4213   17.3928 H      91  UNL91       0.0521
    544 H           2.1183    4.9956   15.6963 H      91  UNL91       0.0521
    545 H           2.1282    6.1689   17.0388 H      91  UNL91       0.0521
    546 H           4.1850    4.3099   16.4096 H      91  UNL91       0.2090
    547 O           3.8993    5.1903   20.0474 O.3    92  UNL92      -0.3982
    548 C           2.4835    5.1903   20.0474 C.3    92  UNL92       0.0330
    549 H           2.1182    4.4213   20.7326 H      92  UNL92       0.0521
    550 H           2.1183    4.9956   19.0361 H      92  UNL92       0.0521
    551 H           2.1282    6.1689   20.3786 H      92  UNL92       0.0521
    552 H           4.1850    4.3099   19.7494 H      92  UNL92       0.2090
    553 O           3.9012    7.3560    0.0419 O.3    93  UNL93      -0.3982
    554 C           2.4854    7.3560    0.0419 C.3    93  UNL93       0.0330
    555 H           2.1201    7.2673   -0.9843 H      93  UNL93       0.0521
    556 H           2.1202    8.2828    0.4911 H      93  UNL93       0.0521
    557 H           2.1301    6.5050    0.6277 H      93  UNL93       0.0521
    558 H           4.1869    8.1217   -0.4851 H      93  UNL93       0.2090
    559 O           2.8993    5.6257    0.3423 O.3    94  UNL94      -0.3982
    560 C           1.4835    5.6257    0.3423 C.3    94  UNL94       0.0330
    561 H           1.1182    4.8567    1.0275 H      94  UNL94       0.0521
    562 H           1.1183    5.4310   -0.6690 H      94  UNL94       0.0521
    563 H           1.1282    6.6043    0.6735 H      94  UNL94       0.0521
    564 H           3.1850    4.7453    0.0443 H      94  UNL94       0.2090
    565 O           3.8993    7.6257    2.6802 O.3    95  UNL95      -0.3982
    566 C           2.4835    7.6257    2.6802 C.3    95  UNL95       0.0330
    567 H           2.1182    6.8567    3.3654 H      95  UNL95       0.0521
    568 H           2.1183    7.4310    1.6689 H      95  UNL95       0.0521
    569 H           2.1282    8.6043    3.0114 H      95  UNL95       0.0521
    570 H           4.1850    6.7453    2.3822 H      95  UNL95       0.2090
    571 O           3.8700    7.7232    6.4638 O.3    96  UNL96      -0.3982
    572 C           2.4542    7.7232    6.4638 C.3    96  UNL96       0.0330
    573 H           2.0889    8.2732    7.3347 H      96  UNL96       0.0521
    574 H           2.0890    6.6936    6.4903 H      96  UNL96       0.0521
    575 H           2.0989    8.2102    5.5527 H      96  UNL96       0.0521
    576 H           4.1557    7.2850    7.2835 H      96  UNL96       0.2090
    577 O           2.9139    7.3131    7.3328 O.3    97  UNL97      -0.3982
    578 C           1.4981    7.3131    7.3328 C.3    97  UNL97       0.0330
    579 H           1.1328    7.7665    6.4079 H      97  UNL97       0.0521
    580 H           1.1329    7.8752    8.1957 H      97  UNL97       0.0521
    581 H           1.1428    6.2819    7.3955 H      97  UNL97       0.0521
    582 H           3.1996    8.2409    7.2763 H      97  UNL97       0.2090
    583 O           3.9911    7.2445   11.4592 O.3    98  UNL98      -0.3982
    584 C           2.5753    7.2445   11.4592 C.3    98  UNL98       0.0330
    585 H           2.2100    8.2153   11.1150 H      98  UNL98       0.0521
    586 H           2.2101    7.0430   12.4692 H      98  UNL98       0.0521
    587 H           2.2200    6.4634   10.7830 H      98  UNL98       0.0521
    588 H           4.2768    7.9472   12.0675 H      98  UNL98       0.2090
    589 O           2.8990    4.1999   11.8374 O.3    99  UNL99      -0.3982
    590 C           1.4832    4.1999   11.8374 C.3    99  UNL99       0.0330
    591 H           1.1179    5.2090   12.0434 H      99  UNL99       0.0521
    592 H           1.1180    3.5062   12.5986 H      99  UNL99       0.0521
    593 H           1.1279    3.8796   10.8552 H      99  UNL99       0.0521
    594 H           3.1847    4.4880   12.7211 H      99  UNL99       0.2090
    595 O           4.0243    7.6260   14.3697 O.3   100  UNL100     -0.3982
    596 C           2.6085    7.6260   14.3697 C.3   100  UNL100      0.0330
    597 H           2.2432    6.8570   15.0549 H     100  UNL100      0.0521
    598 H           2.2433    7.4313   13.3584 H     100  UNL100      0.0521
    599 H           2.2532    8.6046   14.7009 H     100  UNL100      0.0521
    600 H           4.3100    6.7456   14.0717 H     100  UNL100      0.2090
    601 O           0.3556    7.8588   15.7932 O.3   101  UNL101     -0.3982
    602 C          -0.4356    7.5458   16.9247 C.3   101  UNL101      0.0330
    603 H           0.2143    7.3049   17.7697 H     101  UNL101      0.0521
    604 H          -1.0820    6.6953   16.6945 H     101  UNL101      0.0521
    605 H          -1.0524    8.4114   17.1774 H     101  UNL101      0.0521
    606 H           0.8915    7.0725   15.5929 H     101  UNL101      0.2090
    607 O           2.0618    8.2582   19.0455 O.3   102  UNL102     -0.3982
    608 C           2.9091    7.1239   19.0455 C.3   102  UNL102      0.0330
    609 H           3.7438    7.2914   19.7307 H     102  UNL102      0.0521
    610 H           3.2837    6.9478   18.0342 H     102  UNL102      0.0521
    611 H           2.3378    6.2536   19.3767 H     102  UNL102      0.0521
    612 H           2.5962    9.0139   18.7475 H     102  UNL102      0.2090
    613 O           3.8993    9.8696    0.1487 O.3   103  UNL103     -0.3982
    614 C           2.4835    9.8696    0.1487 C.3   103  UNL103      0.0330
    615 H           2.1182   10.8788    0.3547 H     103  UNL103      0.0521
    616 H           2.1183    9.1760    0.9099 H     103  UNL103      0.0521
    617 H           2.1282    9.5493   -0.8336 H     103  UNL103      0.0521
    618 H           4.1850   10.1578    1.0323 H     103  UNL103      0.2090
    619 O           3.9042    9.7914    4.7177 O.3   104  UNL104     -0.3982
    620 C           2.4884    9.7914    4.7177 C.3   104  UNL104      0.0330
    621 H           2.1231    9.7027    3.6915 H     104  UNL104      0.0521
    622 H           2.1232   10.7182    5.1669 H     104  UNL104      0.0521
    623 H           2.1331    8.9404    5.3035 H     104  UNL104      0.0521
    624 H           4.1899   10.5571    4.1907 H     104  UNL104      0.2090
    625 O           2.8986    7.9821    4.8342 O.3   105  UNL105     -0.3982
    626 C           1.4828    7.9821    4.8342 C.3   105  UNL105      0.0330
    627 H           1.1175    8.5320    5.7050 H     105  UNL105      0.0521
    628 H           1.1176    6.9525    4.8606 H     105  UNL105      0.0521
    629 H           1.1275    8.4691    3.9231 H     105  UNL105      0.0521
    630 H           3.1843    7.5439    5.6539 H     105  UNL105      0.2090
    631 O           3.8993   10.0611    7.3560 O.3   106  UNL106     -0.3982
    632 C           2.4835   10.0611    7.3560 C.3   106  UNL106      0.0330
    633 H           2.1182    9.2921    8.0412 H     106  UNL106      0.0521
    634 H           2.1183    9.8664    6.3447 H     106  UNL106      0.0521
    635 H           2.1282   11.0397    7.6872 H     106  UNL106      0.0521
    636 H           4.1850    9.1807    7.0580 H     106  UNL106      0.2090
    637 O           2.6880   11.0637   11.4331 O.3   107  UNL107     -0.3982
    638 C           2.9075    9.6670   11.3582 C.3   107  UNL107      0.0330
    639 H           2.0248    9.1807   10.9356 H     107  UNL107      0.0521
    640 H           3.1092    9.2749   12.3579 H     107  UNL107      0.0521
    641 H           3.7691    9.4768   10.7139 H     107  UNL107      0.0521
    642 H           1.9182   11.2013   12.0109 H     107  UNL107      0.2090
    643 O           2.9149    8.4064   11.9164 O.3   108  UNL108     -0.3982
    644 C           1.4991    8.4064   11.9164 C.3   108  UNL108      0.0330
    645 H           1.1338    8.4610   12.9450 H     108  UNL108      0.0521
    646 H           1.1339    7.4951   11.4367 H     108  UNL108      0.0521
    647 H           1.1438    9.2764   11.3592 H     108  UNL108      0.0521
    648 H           3.2006    7.6237   12.4177 H     108  UNL108      0.2090
    649 O           3.6825   10.0604   13.3150 O.3   109  UNL109     -0.3982
    650 C           2.2667   10.0604   13.3150 C.3   109  UNL109      0.0330
    651 H           1.9014    9.2914   14.0002 H     109  UNL109      0.0521
    652 H           1.9015    9.8657   12.3037 H     109  UNL109      0.0521
    653 H           1.9114   11.0390   13.6462 H     109  UNL109      0.0521
    654 H           3.9682    9.1800   13.0170 H     109  UNL109      0.2090
    655 O           2.6421   10.3662   15.6613 O.3   110  UNL110     -0.3982
    656 C           2.5506    9.6709   16.8912 C.3   110  UNL110      0.0330
    657 H           2.5046   10.3887   17.7140 H     110  UNL110      0.0521
    658 H           3.4209    9.0208   17.0089 H     110  UNL110      0.0521
    659 H           1.6424    9.0635   16.8893 H     110  UNL110      0.0521
    660 H           3.4570   10.8959   15.6925 H     110  UNL110      0.2090
    661 O           3.8993   10.0609   20.1453 O.3   111  UNL111     -0.3982
    662 C           2.4835   10.0609   20.1453 C.3   111  UNL111      0.0330
    663 H           2.1182    9.2919   20.8305 H     111  UNL111      0.0521
    664 H           2.1183    9.8662   19.1340 H     111  UNL111      0.0521
    665 H           2.1282   11.0395   20.4765 H     111  UNL111      0.0521
    666 H           4.1850    9.1805   19.8473 H     111  UNL111      0.2090
    667 O           3.8993   12.2268    2.3798 O.3   112  UNL112     -0.3982
    668 C           2.4835   12.2268    2.3798 C.3   112  UNL112      0.0330
    669 H           2.1182   12.1381    1.3536 H     112  UNL112      0.0521
    670 H           2.1183   13.1536    2.8290 H     112  UNL112      0.0521
    671 H           2.1282   11.3758    2.9656 H     112  UNL112      0.0521
    672 H           4.1850   12.9925    1.8528 H     112  UNL112      0.2090
    673 O           2.8993   10.3050    2.4866 O.3   113  UNL113     -0.3982
    674 C           1.4835   10.3050    2.4866 C.3   113  UNL113      0.0330
    675 H           1.1182   11.3142    2.6926 H     113  UNL113      0.0521
    676 H           1.1183    9.6114    3.2478 H     113  UNL113      0.0521
    677 H           1.1282    9.9847    1.5043 H     113  UNL113      0.0521
    678 H           3.1850   10.5932    3.3702 H     113  UNL113      0.2090
    679 O           3.8993   12.4965    5.0181 O.3   114  UNL114     -0.3982
    680 C           2.4835   12.4965    5.0181 C.3   114  UNL114      0.0330
    681 H           2.1182   11.7275    5.7033 H     114  UNL114      0.0521
    682 H           2.1183   12.3018    4.0068 H     114  UNL114      0.0521
    683 H           2.1282   13.4751    5.3493 H     114  UNL114      0.0521
    684 H           4.1850   11.6161    4.7201 H     114  UNL114      0.2090
    685 O           3.8993   12.2268    9.3935 O.3   115  UNL115     -0.3982
    686 C           2.4835   12.2268    9.3935 C.3   115  UNL115      0.0330
    687 H           2.1182   12.1381    8.3673 H     115  UNL115      0.0521
    688 H           2.1183   13.1536    9.8427 H     115  UNL115      0.0521
    689 H           2.1282   11.3758    9.9793 H     115  UNL115      0.0521
    690 H           4.1850   12.9925    8.8665 H     115  UNL115      0.2090
    691 O           2.8993   10.3050    9.5003 O.3   116  UNL116     -0.3982
    692 C           1.4835   10.3050    9.5003 C.3   116  UNL116      0.0330
    693 H           1.1182   11.3142    9.7063 H     116  UNL116      0.0521
    694 H           1.1183    9.6114   10.2615 H     116  UNL116      0.0521
    695 H           1.1282    9.9847    8.5180 H     116  UNL116      0.0521
    696 H           3.1850   10.5932   10.3839 H     116  UNL116      0.2090
    697 O           1.8279   11.2847   16.7302 O.3   117  UNL117     -0.3982
    698 C           1.5960   12.6814   16.7302 C.3   117  UNL117      0.0330
    699 H           1.4486   13.0272   15.7040 H     117  UNL117      0.0521
    700 H           2.4504   13.1934   17.1794 H     117  UNL117      0.0521
    701 H           0.6983   12.8925   17.3160 H     117  UNL117      0.0521
    702 H           2.6300   11.1283   16.2032 H     117  UNL117      0.2090
    703 O           3.8934   12.2268   19.0832 O.3   118  UNL118     -0.3982
    704 C           2.4776   12.2268   19.0832 C.3   118  UNL118      0.0330
    705 H           2.1123   12.1381   18.0571 H     118  UNL118      0.0521
    706 H           2.1124   13.1536   19.5325 H     118  UNL118      0.0521
    707 H           2.1223   11.3758   19.6690 H     118  UNL118      0.0521
    708 H           4.1791   12.9925   18.5562 H     118  UNL118      0.2090
    709 O           3.8700   14.4733    2.5168 O.3   119  UNL119     -0.3982
    710 C           2.4542   14.4733    2.5168 C.3   119  UNL119      0.0330
    711 H           2.0889   15.4441    2.1726 H     119  UNL119      0.0521
    712 H           2.0890   14.2718    3.5267 H     119  UNL119      0.0521
    713 H           2.0989   13.6922    1.8406 H     119  UNL119      0.0521
    714 H           4.1557   15.1760    3.1251 H     119  UNL119      0.2090
    715 O           2.9010   15.9573    3.5801 O.3   120  UNL120     -0.3982
    716 C           1.4852   15.9573    3.5801 C.3   120  UNL120      0.0330
    717 H           1.1199   15.1883    4.2653 H     120  UNL120      0.0521
    718 H           1.1200   15.7626    2.5688 H     120  UNL120      0.0521
    719 H           1.1299   16.9359    3.9113 H     120  UNL120      0.0521
    720 H           3.1867   15.0769    3.2821 H     120  UNL120      0.2090
    721 O           3.0525   14.9163    4.5772 O.3   121  UNL121     -0.3982
    722 C           2.8206   14.9163    5.9738 C.3   121  UNL121      0.0330
    723 H           3.4367   14.1473    6.4465 H     121  UNL121      0.0521
    724 H           1.7632   14.7216    6.1685 H     121  UNL121      0.0521
    725 H           3.0892   15.8949    6.3786 H     121  UNL121      0.0521
    726 H           2.8054   14.0359    4.2465 H     121  UNL121      0.2090
    727 O           3.8697   14.4381    9.5305 O.3   122  UNL122     -0.3982
    728 C           2.4539   14.4381    9.5305 C.3   122  UNL122      0.0330
    729 H           2.0886   15.4089    9.1863 H     122  UNL122      0.0521
    730 H           2.0887   14.2366   10.5404 H     122  UNL122      0.0521
    731 H           2.0986   13.6570    8.8543 H     122  UNL122      0.0521
    732 H           4.1554   15.1409   10.1388 H     122  UNL122      0.2090
    733 O           2.9027   15.2771   10.5259 O.3   123  UNL123     -0.3982
    734 C           1.4869   15.2771   10.5259 C.3   123  UNL123      0.0330
    735 H           1.1216   14.5081   11.2111 H     123  UNL123      0.0521
    736 H           1.1217   15.0824    9.5146 H     123  UNL123      0.0521
    737 H           1.1316   16.2557   10.8571 H     123  UNL123      0.0521
    738 H           3.1884   14.3967   10.2279 H     123  UNL123      0.2090
    739 O           3.0538   14.9158   11.8204 O.3   124  UNL124     -0.3982
    740 C           2.8218   14.9158   13.2170 C.3   124  UNL124      0.0330
    741 H           3.4380   14.1468   13.6896 H     124  UNL124      0.0521
    742 H           1.7644   14.7211   13.4117 H     124  UNL124      0.0521
    743 H           3.0904   15.8944   13.6218 H     124  UNL124      0.0521
    744 H           2.8066   14.0354   11.4897 H     124  UNL124      0.2090
    745 O           3.8993   14.9319   16.7076 O.3   125  UNL125     -0.3982
    746 C           2.4835   14.9319   16.7076 C.3   125  UNL125      0.0330
    747 H           2.1182   14.1629   17.3928 H     125  UNL125      0.0521
    748 H           2.1183   14.7372   15.6963 H     125  UNL125      0.0521
    749 H           2.1282   15.9105   17.0388 H     125  UNL125      0.0521
    750 H           4.1850   14.0515   16.4096 H     125  UNL125      0.2090
    751 O           4.0243   14.9163   20.0513 O.3   126  UNL126     -0.3982
    752 C           2.6085   14.9163   20.0513 C.3   126  UNL126      0.0330
    753 H           2.2432   14.1473   20.7365 H     126  UNL126      0.0521
    754 H           2.2433   14.7216   19.0400 H     126  UNL126      0.0521
    755 H           2.2532   15.8949   20.3825 H     126  UNL126      0.0521
    756 H           4.3100   14.0359   19.7533 H     126  UNL126      0.2090
    757 O           3.8993   17.3673    0.3423 O.3   127  UNL127     -0.3982
    758 C           2.4835   17.3673    0.3423 C.3   127  UNL127      0.0330
    759 H           2.1182   16.5983    1.0275 H     127  UNL127      0.0521
    760 H           2.1183   17.1726   -0.6690 H     127  UNL127      0.0521
    761 H           2.1282   18.3459    0.6735 H     127  UNL127      0.0521
    762 H           4.1850   16.4869    0.0443 H     127  UNL127      0.2090
    763 O           3.7985   17.0976    4.5172 O.3   128  UNL128     -0.3982
    764 C           2.3827   17.0976    4.5172 C.3   128  UNL128      0.0330
    765 H           2.0174   17.0089    3.4911 H     128  UNL128      0.0521
    766 H           2.0175   18.0244    4.9665 H     128  UNL128      0.0521
    767 H           2.0274   16.2466    5.1030 H     128  UNL128      0.0521
    768 H           4.0842   17.8633    3.9903 H     128  UNL128      0.2090
    769 O           2.8365   17.2751    5.2320 O.3   129  UNL129     -0.3982
    770 C           1.4207   17.2751    5.2320 C.3   129  UNL129      0.0330
    771 H           1.0554   16.2596    5.0596 H     129  UNL129      0.0521
    772 H           1.0555   17.9431    4.4482 H     129  UNL129      0.0521
    773 H           1.0654   17.6278    6.2030 H     129  UNL129      0.0521
    774 H           3.1222   16.9577    4.3584 H     129  UNL129      0.2090
    775 O           3.8993   17.3673    7.3560 O.3   130  UNL130     -0.3982
    776 C           2.4835   17.3673    7.3560 C.3   130  UNL130      0.0330
    777 H           2.1182   16.5983    8.0412 H     130  UNL130      0.0521
    778 H           2.1183   17.1726    6.3447 H     130  UNL130      0.0521
    779 H           2.1282   18.3459    7.6872 H     130  UNL130      0.0521
    780 H           4.1850   16.4869    7.0580 H     130  UNL130      0.2090
    781 O           2.6349   16.1423   11.3266 O.3   131  UNL131     -0.3982
    782 C           2.4030   17.5389   11.3266 C.3   131  UNL131      0.0330
    783 H           3.3009   18.0583   10.9825 H     131  UNL131      0.0521
    784 H           2.1444   17.8662   12.3366 H     131  UNL131      0.0521
    785 H           1.5742   17.7615   10.6505 H     131  UNL131      0.0521
    786 H           3.3750   15.9755   11.9350 H     131  UNL131      0.2090
    787 O           2.9142   17.0954   12.1417 O.3   132  UNL132     -0.3982
    788 C           1.4984   17.0954   12.1417 C.3   132  UNL132      0.0330
    789 H           1.1331   16.0799   11.9693 H     132  UNL132      0.0521
    790 H           1.1332   17.7634   11.3579 H     132  UNL132      0.0521
    791 H           1.1431   17.4481   13.1127 H     132  UNL132      0.0521
    792 H           3.1999   16.7780   11.2681 H     132  UNL132      0.2090
    793 O           3.8993   17.3673   14.3697 O.3   133  UNL133     -0.3982
    794 C           2.4835   17.3673   14.3697 C.3   133  UNL133      0.0330
    795 H           2.1182   16.5983   15.0549 H     133  UNL133      0.0521
    796 H           2.1183   17.1726   13.3584 H     133  UNL133      0.0521
    797 H           2.1282   18.3459   14.7009 H     133  UNL133      0.0521
    798 H           4.1850   16.4869   14.0717 H     133  UNL133      0.2090
    799 O           3.9054   17.0976   18.7509 O.3   134  UNL134     -0.3982
    800 C           2.4896   17.0976   18.7509 C.3   134  UNL134      0.0330
    801 H           2.1243   17.0089   17.7248 H     134  UNL134      0.0521
    802 H           2.1244   18.0244   19.2002 H     134  UNL134      0.0521
    803 H           2.1343   16.2466   19.3367 H     134  UNL134      0.0521
    804 H           4.1911   17.8633   18.2240 H     134  UNL134      0.2090
    805 O           2.8993   15.5665   18.8516 O.3   135  UNL135     -0.3982
    806 C           1.4835   15.5665   18.8516 C.3   135  UNL135      0.0330
    807 H           1.1182   16.5756   19.0576 H     135  UNL135      0.0521
    808 H           1.1183   14.8728   19.6128 H     135  UNL135      0.0521
    809 H           1.1282   15.2462   17.8694 H     135  UNL135      0.0521
    810 H           3.1850   15.8546   19.7353 H     135  UNL135      0.2090
    811 O           3.0467   19.7871   -0.2944 O.3   136  UNL136     -0.3982
    812 C           2.8148   19.7871    1.1022 C.3   136  UNL136      0.0330
    813 H           3.4309   19.0181    1.5749 H     136  UNL136      0.0521
    814 H           1.7573   19.5924    1.2969 H     136  UNL136      0.0521
    815 H           3.0833   20.7657    1.5070 H     136  UNL136      0.0521
    816 H           2.7995   18.9067   -0.6251 H     136  UNL136      0.2090
    817 O           3.8993   19.5330    5.0556 O.3   137  UNL137     -0.3982
    818 C           2.4835   19.5330    5.0556 C.3   137  UNL137      0.0330
    819 H           2.1182   19.4443    4.0294 H     137  UNL137      0.0521
    820 H           2.1183   20.4598    5.5048 H     137  UNL137      0.0521
    821 H           2.1282   18.6820    5.6414 H     137  UNL137      0.0521
    822 H           4.1850   20.2987    4.5286 H     137  UNL137      0.2090
    823 O           3.9051   19.5330    9.3840 O.3   138  UNL138     -0.3982
    824 C           2.4893   19.5330    9.3840 C.3   138  UNL138      0.0330
    825 H           2.1240   19.4443    8.3578 H     138  UNL138      0.0521
    826 H           2.1241   20.4598    9.8332 H     138  UNL138      0.0521
    827 H           2.1340   18.6820    9.9698 H     138  UNL138      0.0521
    828 H           4.1908   20.2987    8.8570 H     138  UNL138      0.2090
    829 O           2.8995   17.7988    9.1882 O.3   139  UNL139     -0.3982
    830 C           1.4837   17.7988    9.1882 C.3   139  UNL139      0.0330
    831 H           1.1184   17.0298    9.8734 H     139  UNL139      0.0521
    832 H           1.1185   17.6041    8.1769 H     139  UNL139      0.0521
    833 H           1.1284   18.7774    9.5194 H     139  UNL139      0.0521
    834 H           3.1852   16.9184    8.8902 H     139  UNL139      0.2090
    835 O           3.8993   19.8027   12.0318 O.3   140  UNL140     -0.3982
    836 C           2.4835   19.8027   12.0318 C.3   140  UNL140      0.0330
    837 H           2.1182   19.0337   12.7170 H     140  UNL140      0.0521
    838 H           2.1183   19.6080   11.0205 H     140  UNL140      0.0521
    839 H           2.1282   20.7813   12.3630 H     140  UNL140      0.0521
    840 H           4.1850   18.9223   11.7338 H     140  UNL140      0.2090
    841 O           3.8993   19.5325   16.3996 O.3   141  UNL141     -0.3982
    842 C           2.4835   19.5325   16.3996 C.3   141  UNL141      0.0330
    843 H           2.1182   19.4438   15.3735 H     141  UNL141      0.0521
    844 H           2.1183   20.4593   16.8489 H     141  UNL141      0.0521
    845 H           2.1282   18.6815   16.9854 H     141  UNL141      0.0521
    846 H           4.1850   20.2982   15.8726 H     141  UNL141      0.2090
    847 O           2.8993   17.6112   16.5140 O.3   142  UNL142     -0.3982
    848 C           1.4835   17.6112   16.5140 C.3   142  UNL142      0.0330
    849 H           1.1182   18.6204   16.7200 H     142  UNL142      0.0521
    850 H           1.1183   16.9176   17.2752 H     142  UNL142      0.0521
    851 H           1.1282   17.2909   15.5317 H     142  UNL142      0.0521
    852 H           3.1850   17.8994   17.3976 H     142  UNL142      0.2090
    853 O           3.5853   19.6112   19.9468 O.3   143  UNL143     -0.3982
    854 C           2.1695   19.6112   19.9468 C.3   143  UNL143      0.0330
    855 H           1.8042   20.6204   20.1528 H     143  UNL143      0.0521
    856 H           1.8043   18.9176   20.7080 H     143  UNL143      0.0521
    857 H           1.8142   19.2909   18.9646 H     143  UNL143      0.0521
    858 H           3.8710   19.8994   20.8305 H     143  UNL143      0.2090
    859 O           2.6525   21.1159   -1.2691 O.3   144  UNL144     -0.3982
    860 C           2.4206   22.5125   -1.2691 C.3   144  UNL144      0.0330
    861 H           3.3184   23.0319   -1.6133 H     144  UNL144      0.0521
    862 H           2.1620   22.8398   -0.2592 H     144  UNL144      0.0521
    863 H           1.5918   22.7351   -1.9453 H     144  UNL144      0.0521
    864 H           3.3926   20.9491   -0.6608 H     144  UNL144      0.2090
    865 O           2.8983   22.1295    0.4524 O.3   145  UNL145     -0.3982
    866 C           1.4825   22.1295    0.4524 C.3   145  UNL145      0.0330
    867 H           1.1172   21.1141    0.2800 H     145  UNL145      0.0521
    868 H           1.1173   22.7975   -0.3314 H     145  UNL145      0.0521
    869 H           1.1272   22.4823    1.4235 H     145  UNL145      0.0521
    870 H           3.1840   21.8122   -0.4212 H     145  UNL145      0.2090
    871 O           3.9012   22.2381    2.6802 O.3   146  UNL146     -0.3982
    872 C           2.4854   22.2381    2.6802 C.3   146  UNL146      0.0330
    873 H           2.1201   21.4691    3.3654 H     146  UNL146      0.0521
    874 H           2.1202   22.0434    1.6689 H     146  UNL146      0.0521
    875 H           2.1301   23.2167    3.0114 H     146  UNL146      0.0521
    876 H           4.1869   21.3577    2.3822 H     146  UNL146      0.2090
    877 O           3.8993   21.9684    7.0556 O.3   147  UNL147     -0.3982
    878 C           2.4835   21.9684    7.0556 C.3   147  UNL147      0.0330
    879 H           2.1182   21.8797    6.0294 H     147  UNL147      0.0521
    880 H           2.1183   22.8952    7.5048 H     147  UNL147      0.0521
    881 H           2.1282   21.1174    7.6414 H     147  UNL147      0.0521
    882 H           4.1850   22.7341    6.5286 H     147  UNL147      0.2090
    883 O           2.8993   20.0466    7.1624 O.3   148  UNL148     -0.3982
    884 C           1.4835   20.0466    7.1624 C.3   148  UNL148      0.0330
    885 H           1.1182   21.0558    7.3684 H     148  UNL148      0.0521
    886 H           1.1183   19.3530    7.9236 H     148  UNL148      0.0521
    887 H           1.1282   19.7263    6.1801 H     148  UNL148      0.0521
    888 H           3.1850   20.3348    8.0460 H     148  UNL148      0.2090
    889 O           3.9032   21.9687    9.7314 O.3   149  UNL149     -0.3982
    890 C           2.4874   21.9687    9.7314 C.3   149  UNL149      0.0330
    891 H           2.1221   21.8799    8.7052 H     149  UNL149      0.0521
    892 H           2.1222   22.8954   10.1806 H     149  UNL149      0.0521
    893 H           2.1321   21.1177   10.3172 H     149  UNL149      0.0521
    894 H           4.1889   22.7343    9.2044 H     149  UNL149      0.2090
    895 O           3.8993   21.9684   14.0693 O.3   150  UNL150     -0.3982
    896 C           2.4835   21.9684   14.0693 C.3   150  UNL150      0.0330
    897 H           2.1182   21.8797   13.0431 H     150  UNL150      0.0521
    898 H           2.1183   22.8952   14.5185 H     150  UNL150      0.0521
    899 H           2.1282   21.1174   14.6551 H     150  UNL150      0.0521
    900 H           4.1850   22.7341   13.5423 H     150  UNL150      0.2090
    901 O           2.9000   20.0398   14.1761 O.3   151  UNL151     -0.3982
    902 C           1.4842   20.0398   14.1761 C.3   151  UNL151      0.0330
    903 H           1.1189   21.0490   14.3821 H     151  UNL151      0.0521
    904 H           1.1190   19.3461   14.9373 H     151  UNL151      0.0521
    905 H           1.1289   19.7195   13.1938 H     151  UNL151      0.0521
    906 H           3.1857   20.3280   15.0597 H     151  UNL151      0.2090
    907 O           3.8993   21.9687   16.7451 O.3   152  UNL152     -0.3982
    908 C           2.4835   21.9687   16.7451 C.3   152  UNL152      0.0330
    909 H           2.1182   21.8799   15.7189 H     152  UNL152      0.0521
    910 H           2.1183   22.8954   17.1943 H     152  UNL152      0.0521
    911 H           2.1282   21.1177   17.3309 H     152  UNL152      0.0521
    912 H           4.1850   22.7343   16.2181 H     152  UNL152      0.2090
    913 O           2.0677   22.8706   19.0455 O.3   153  UNL153     -0.3982
    914 C           2.9150   21.7363   19.0455 C.3   153  UNL153      0.0330
    915 H           3.7497   21.9038   19.7307 H     153  UNL153      0.0521
    916 H           3.2895   21.5602   18.0342 H     153  UNL153      0.0521
    917 H           2.3436   20.8660   19.3767 H     153  UNL153      0.0521
    918 H           2.6020   23.6263   18.7475 H     153  UNL153      0.2090
    919 O           2.8993   24.4820    0.1487 O.3   154  UNL154     -0.3982
    920 C           1.4835   24.4820    0.1487 C.3   154  UNL154      0.0330
    921 H           1.1182   25.4912    0.3547 H     154  UNL154      0.0521
    922 H           1.1183   23.7884    0.9099 H     154  UNL154      0.0521
    923 H           1.1282   24.1617   -0.8336 H     154  UNL154      0.0521
    924 H           3.1850   24.7702    1.0323 H     154  UNL154      0.2090
    925 O           2.8993   24.6735    2.6802 O.3   155  UNL155     -0.3982
    926 C           1.4835   24.6735    2.6802 C.3   155  UNL155      0.0330
    927 H           1.1182   23.9045    3.3654 H     155  UNL155      0.0521
    928 H           1.1183   24.4788    1.6689 H     155  UNL155      0.0521
    929 H           1.1282   25.6521    3.0114 H     155  UNL155      0.0521
    930 H           3.1850   23.7931    2.3822 H     155  UNL155      0.2090
    931 O           2.4684   24.5016    5.0181 O.3   156  UNL156     -0.3982
    932 C           3.1027   25.7673    5.0181 C.3   156  UNL156      0.0330
    933 H           2.5789   26.4385    5.7033 H     156  UNL156      0.0521
    934 H           3.0923   26.1811    4.0068 H     156  UNL156      0.0521
    935 H           4.1368   25.6465    5.3493 H     156  UNL156      0.0521
    936 H           1.5533   24.6407    4.7201 H     156  UNL156      0.2090
    937 O           3.8973   25.6735    7.3560 O.3   157  UNL157     -0.3982
    938 C           2.4815   25.6735    7.3560 C.3   157  UNL157      0.0330
    939 H           2.1162   24.9045    8.0412 H     157  UNL157      0.0521
    940 H           2.1163   25.4788    6.3447 H     157  UNL157      0.0521
    941 H           2.1262   26.6521    7.6872 H     157  UNL157      0.0521
    942 H           4.1830   24.7931    7.0580 H     157  UNL157      0.2090
    943 O           2.5400   24.3702    8.8433 O.3   158  UNL158     -0.3982
    944 C           1.7488   24.6832    9.9748 C.3   158  UNL158      0.0330
    945 H           1.4521   23.7605   10.4797 H     158  UNL158      0.0521
    946 H           0.8628   25.2391    9.6585 H     158  UNL158      0.0521
    947 H           2.3365   25.2983   10.6602 H     158  UNL158      0.0521
    948 H           1.9922   23.8244    8.2537 H     158  UNL158      0.2090
    949 O           2.4684   24.5016   12.0318 O.3   159  UNL159     -0.3982
    950 C           3.1027   25.7673   12.0318 C.3   159  UNL159      0.0330
    951 H           2.5789   26.4385   12.7170 H     159  UNL159      0.0521
    952 H           3.0923   26.1811   11.0205 H     159  UNL159      0.0521
    953 H           4.1368   25.6465   12.3630 H     159  UNL159      0.0521
    954 H           1.5533   24.6407   11.7338 H     159  UNL159      0.2090
    955 O           3.8993   25.6735   14.3697 O.3   160  UNL160     -0.3982
    956 C           2.4835   25.6735   14.3697 C.3   160  UNL160      0.0330
    957 H           2.1182   24.9045   15.0549 H     160  UNL160      0.0521
    958 H           2.1183   25.4788   13.3584 H     160  UNL160      0.0521
    959 H           2.1282   26.6521   14.7009 H     160  UNL160      0.0521
    960 H           4.1850   24.7931   14.0717 H     160  UNL160      0.2090
    961 O           2.8993   24.4038   16.7451 O.3   161  UNL161     -0.3982
    962 C           1.4835   24.4038   16.7451 C.3   161  UNL161      0.0330
    963 H           1.1182   24.3151   15.7189 H     161  UNL161      0.0521
    964 H           1.1183   25.3306   17.1943 H     161  UNL161      0.0521
    965 H           1.1282   23.5528   17.3309 H     161  UNL161      0.0521
    966 H           3.1850   25.1695   16.2181 H     161  UNL161      0.2090
    967 O           3.8993   25.6735   20.0455 O.3   162  UNL162     -0.3982
    968 C           2.4835   25.6735   20.0455 C.3   162  UNL162      0.0330
    969 H           2.1182   24.9045   20.7307 H     162  UNL162      0.0521
    970 H           2.1183   25.4788   19.0342 H     162  UNL162      0.0521
    971 H           2.1282   26.6521   20.3767 H     162  UNL162      0.0521
    972 H           4.1850   24.7931   19.7475 H     162  UNL162      0.2090
@<TRIPOS>BOND
     1     1     2    1
     2     1     6    1
     3     2     3    1
     4     2     4    1
     5     2     5    1
     6     7     8    1
     7     7    12    1
     8     8     9    1
     9     8    10    1
    10     8    11    1
    11    13    14    1
    12    13    18    1
    13    14    15    1
    14    14    16    1
    15    14    17    1
    16    19    20    1
    17    19    24    1
    18    20    21    1
    19    20    22    1
    20    20    23    1
    21    25    26    1
    22    25    30    1
    23    26    27    1
    24    26    28    1
    25    26    29    1
    26    31    32    1
    27    31    36    1
    28    32    33    1
    29    32    34    1
    30    32    35    1
    31    37    38    1
    32    37    42    1
    33    38    39    1
    34    38    40    1
    35    38    41    1
    36    43    44    1
    37    43    48    1
    38    44    45    1
    39    44    46    1
    40    44    47    1
    41    49    50    1
    42    49    54    1
    43    50    51    1
    44    50    52    1
    45    50    53    1
    46    55    56    1
    47    55    60    1
    48    56    57    1
    49    56    58    1
    50    56    59    1
    51    61    62    1
    52    61    66    1
    53    62    63    1
    54    62    64    1
    55    62    65    1
    56    67    68    1
    57    67    72    1
    58    68    69    1
    59    68    70    1
    60    68    71    1
    61    73    74    1
    62    73    78    1
    63    74    75    1
    64    74    76    1
    65    74    77    1
    66    79    80    1
    67    79    84    1
    68    80    81    1
    69    80    82    1
    70    80    83    1
    71    85    86    1
    72    85    90    1
    73    86    87    1
    74    86    88    1
    75    86    89    1
    76    91    92    1
    77    91    96    1
    78    92    93    1
    79    92    94    1
    80    92    95    1
    81    97    98    1
    82    97   102    1
    83    98    99    1
    84    98   100    1
    85    98   101    1
    86   103   104    1
    87   103   108    1
    88   104   105    1
    89   104   106    1
    90   104   107    1
    91   109   110    1
    92   109   114    1
    93   110   111    1
    94   110   112    1
    95   110   113    1
    96   115   116    1
    97   115   120    1
    98   116   117    1
    99   116   118    1
   100   116   119    1
   101   121   122    1
   102   121   126    1
   103   122   123    1
   104   122   124    1
   105   122   125    1
   106   127   128    1
   107   127   132    1
   108   128   129    1
   109   128   130    1
   110   128   131    1
   111   133   134    1
   112   133   138    1
   113   134   135    1
   114   134   136    1
   115   134   137    1
   116   139   140    1
   117   139   144    1
   118   140   141    1
   119   140   142    1
   120   140   143    1
   121   145   146    1
   122   145   150    1
   123   146   147    1
   124   146   148    1
   125   146   149    1
   126   151   152    1
   127   151   156    1
   128   152   153    1
   129   152   154    1
   130   152   155    1
   131   157   158    1
   132   157   162    1
   133   158   159    1
   134   158   160    1
   135   158   161    1
   136   163   164    1
   137   163   168    1
   138   164   165    1
   139   164   166    1
   140   164   167    1
   141   169   170    1
   142   169   174    1
   143   170   171    1
   144   170   172    1
   145   170   173    1
   146   175   176    1
   147   175   180    1
   148   176   177    1
   149   176   178    1
   150   176   179    1
   151   181   182    1
   152   181   186    1
   153   182   183    1
   154   182   184    1
   155   182   185    1
   156   187   188    1
   157   187   192    1
   158   188   189    1
   159   188   190    1
   160   188   191    1
   161   193   194    1
   162   193   198    1
   163   194   195    1
   164   194   196    1
   165   194   197    1
   166   199   200    1
   167   199   204    1
   168   200   201    1
   169   200   202    1
   170   200   203    1
   171   205   206    1
   172   205   210    1
   173   206   207    1
   174   206   208    1
   175   206   209    1
   176   211   212    1
   177   211   216    1
   178   212   213    1
   179   212   214    1
   180   212   215    1
   181   217   218    1
   182   217   222    1
   183   218   219    1
   184   218   220    1
   185   218   221    1
   186   223   224    1
   187   223   228    1
   188   224   225    1
   189   224   226    1
   190   224   227    1
   191   229   230    1
   192   229   234    1
   193   230   231    1
   194   230   232    1
   195   230   233    1
   196   235   236    1
   197   235   240    1
   198   236   237    1
   199   236   238    1
   200   236   239    1
   201   241   242    1
   202   241   246    1
   203   242   243    1
   204   242   244    1
   205   242   245    1
   206   247   248    1
   207   247   252    1
   208   248   249    1
   209   248   250    1
   210   248   251    1
   211   253   254    1
   212   253   258    1
   213   254   255    1
   214   254   256    1
   215   254   257    1
   216   259   260    1
   217   259   264    1
   218   260   261    1
   219   260   262    1
   220   260   263    1
   221   265   266    1
   222   265   270    1
   223   266   267    1
   224   266   268    1
   225   266   269    1
   226   271   272    1
   227   271   276    1
   228   272   273    1
   229   272   274    1
   230   272   275    1
   231   277   278    1
   232   277   282    1
   233   278   279    1
   234   278   280    1
   235   278   281    1
   236   283   284    1
   237   283   288    1
   238   284   285    1
   239   284   286    1
   240   284   287    1
   241   289   290    1
   242   289   294    1
   243   290   291    1
   244   290   292    1
   245   290   293    1
   246   295   296    1
   247   295   300    1
   248   296   297    1
   249   296   298    1
   250   296   299    1
   251   301   302    1
   252   301   306    1
   253   302   303    1
   254   302   304    1
   255   302   305    1
   256   307   308    1
   257   307   312    1
   258   308   309    1
   259   308   310    1
   260   308   311    1
   261   313   314    1
   262   313   318    1
   263   314   315    1
   264   314   316    1
   265   314   317    1
   266   319   320    1
   267   319   324    1
   268   320   321    1
   269   320   322    1
   270   320   323    1
   271   325   326    1
   272   325   330    1
   273   326   327    1
   274   326   328    1
   275   326   329    1
   276   331   332    1
   277   331   336    1
   278   332   333    1
   279   332   334    1
   280   332   335    1
   281   337   338    1
   282   337   342    1
   283   338   339    1
   284   338   340    1
   285   338   341    1
   286   343   344    1
   287   343   348    1
   288   344   345    1
   289   344   346    1
   290   344   347    1
   291   349   350    1
   292   349   354    1
   293   350   351    1
   294   350   352    1
   295   350   353    1
   296   355   356    1
   297   355   360    1
   298   356   357    1
   299   356   358    1
   300   356   359    1
   301   361   362    1
   302   361   366    1
   303   362   363    1
   304   362   364    1
   305   362   365    1
   306   367   368    1
   307   367   372    1
   308   368   369    1
   309   368   370    1
   310   368   371    1
   311   373   374    1
   312   373   378    1
   313   374   375    1
   314   374   376    1
   315   374   377    1
   316   379   380    1
   317   379   384    1
   318   380   381    1
   319   380   382    1
   320   380   383    1
   321   385   386    1
   322   385   390    1
   323   386   387    1
   324   386   388    1
   325   386   389    1
   326   391   392    1
   327   391   396    1
   328   392   393    1
   329   392   394    1
   330   392   395    1
   331   397   398    1
   332   397   402    1
   333   398   399    1
   334   398   400    1
   335   398   401    1
   336   403   404    1
   337   403   408    1
   338   404   405    1
   339   404   406    1
   340   404   407    1
   341   409   410    1
   342   409   414    1
   343   410   411    1
   344   410   412    1
   345   410   413    1
   346   415   416    1
   347   415   420    1
   348   416   417    1
   349   416   418    1
   350   416   419    1
   351   421   422    1
   352   421   426    1
   353   422   423    1
   354   422   424    1
   355   422   425    1
   356   427   428    1
   357   427   432    1
   358   428   429    1
   359   428   430    1
   360   428   431    1
   361   433   434    1
   362   433   438    1
   363   434   435    1
   364   434   436    1
   365   434   437    1
   366   439   440    1
   367   439   444    1
   368   440   441    1
   369   440   442    1
   370   440   443    1
   371   445   446    1
   372   445   450    1
   373   446   447    1
   374   446   448    1
   375   446   449    1
   376   451   452    1
   377   451   456    1
   378   452   453    1
   379   452   454    1
   380   452   455    1
   381   457   458    1
   382   457   462    1
   383   458   459    1
   384   458   460    1
   385   458   461    1
   386   463   464    1
   387   463   468    1
   388   464   465    1
   389   464   466    1
   390   464   467    1
   391   469   470    1
   392   469   474    1
   393   470   471    1
   394   470   472    1
   395   470   473    1
   396   475   476    1
   397   475   480    1
   398   476   477    1
   399   476   478    1
   400   476   479    1
   401   481   482    1
   402   481   486    1
   403   482   483    1
   404   482   484    1
   405   482   485    1
   406   487   488    1
   407   487   492    1
   408   488   489    1
   409   488   490    1
   410   488   491    1
   411   493   494    1
   412   493   498    1
   413   494   495    1
   414   494   496    1
   415   494   497    1
   416   499   500    1
   417   499   504    1
   418   500   501    1
   419   500   502    1
   420   500   503    1
   421   505   506    1
   422   505   510    1
   423   506   507    1
   424   506   508    1
   425   506   509    1
   426   511   512    1
   427   511   516    1
   428   512   513    1
   429   512   514    1
   430   512   515    1
   431   517   518    1
   432   517   522    1
   433   518   519    1
   434   518   520    1
   435   518   521    1
   436   523   524    1
   437   523   528    1
   438   524   525    1
   439   524   526    1
   440   524   527    1
   441   529   530    1
   442   529   534    1
   443   530   531    1
   444   530   532    1
   445   530   533    1
   446   535   536    1
   447   535   540    1
   448   536   537    1
   449   536   538    1
   450   536   539    1
   451   541   542    1
   452   541   546    1
   453   542   543    1
   454   542   544    1
   455   542   545    1
   456   547   548    1
   457   547   552    1
   458   548   549    1
   459   548   550    1
   460   548   551    1
   461   553   554    1
   462   553   558    1
   463   554   555    1
   464   554   556    1
   465   554   557    1
   466   559   560    1
   467   559   564    1
   468   560   561    1
   469   560   562    1
   470   560   563    1
   471   565   566    1
   472   565   570    1
   473   566   567    1
   474   566   568    1
   475   566   569    1
   476   571   572    1
   477   571   576    1
   478   572   573    1
   479   572   574    1
   480   572   575    1
   481   577   578    1
   482   577   582    1
   483   578   579    1
   484   578   580    1
   485   578   581    1
   486   583   584    1
   487   583   588    1
   488   584   585    1
   489   584   586    1
   490   584   587    1
   491   589   590    1
   492   589   594    1
   493   590   591    1
   494   590   592    1
   495   590   593    1
   496   595   596    1
   497   595   600    1
   498   596   597    1
   499   596   598    1
   500   596   599    1
   501   601   602    1
   502   601   606    1
   503   602   603    1
   504   602   604    1
   505   602   605    1
   506   607   608    1
   507   607   612    1
   508   608   609    1
   509   608   610    1
   510   608   611    1
   511   613   614    1
   512   613   618    1
   513   614   615    1
   514   614   616    1
   515   614   617    1
   516   619   620    1
   517   619   624    1
   518   620   621    1
   519   620   622    1
   520   620   623    1
   521   625   626    1
   522   625   630    1
   523   626   627    1
   524   626   628    1
   525   626   629    1
   526   631   632    1
   527   631   636    1
   528   632   633    1
   529   632   634    1
   530   632   635    1
   531   637   638    1
   532   637   642    1
   533   638   639    1
   534   638   640    1
   535   638   641    1
   536   643   644    1
   537   643   648    1
   538   644   645    1
   539   644   646    1
   540   644   647    1
   541   649   650    1
   542   649   654    1
   543   650   651    1
   544   650   652    1
   545   650   653    1
   546   655   656    1
   547   655   660    1
   548   656   657    1
   549   656   658    1
   550   656   659    1
   551   661   662    1
   552   661   666    1
   553   662   663    1
   554   662   664    1
   555   662   665    1
   556   667   668    1
   557   667   672    1
   558   668   669    1
   559   668   670    1
   560   668   671    1
   561   673   674    1
   562   673   678    1
   563   674   675    1
   564   674   676    1
   565   674   677    1
   566   679   680    1
   567   679   684    1
   568   680   681    1
   569   680   682    1
   570   680   683    1
   571   685   686    1
   572   685   690    1
   573   686   687    1
   574   686   688    1
   575   686   689    1
   576   691   692    1
   577   691   696    1
   578   692   693    1
   579   692   694    1
   580   692   695    1
   581   697   698    1
   582   697   702    1
   583   698   699    1
   584   698   700    1
   585   698   701    1
   586   703   704    1
   587   703   708    1
   588   704   705    1
   589   704   706    1
   590   704   707    1
   591   709   710    1
   592   709   714    1
   593   710   711    1
   594   710   712    1
   595   710   713    1
   596   715   716    1
   597   715   720    1
   598   716   717    1
   599   716   718    1
   600   716   719    1
   601   721   722    1
   602   721   726    1
   603   722   723    1
   604   722   724    1
   605   722   725    1
   606   727   728    1
   607   727   732    1
   608   728   729    1
   609   728   730    1
   610   728   731    1
   611   733   734    1
   612   733   738    1
   613   734   735    1
   614   734   736    1
   615   734   737    1
   616   739   740    1
   617   739   744    1
   618   740   741    1
   619   740   742    1
   620   740   743    1
   621   745   746    1
   622   745   750    1
   623   746   747    1
   624   746   748    1
   625   746   749    1
   626   751   752    1
   627   751   756    1
   628   752   753    1
   629   752   754    1
   630   752   755    1
   631   757   758    1
   632   757   762    1
   633   758   759    1
   634   758   760    1
   635   758   761    1
   636   763   764    1
   637   763   768    1
   638   764   765    1
   639   764   766    1
   640   764   767    1
   641   769   770    1
   642   769   774    1
   643   770   771    1
   644   770   772    1
   645   770   773    1
   646   775   776    1
   647   775   780    1
   648   776   777    1
   649   776   778    1
   650   776   779    1
   651   781   782    1
   652   781   786    1
   653   782   783    1
   654   782   784    1
   655   782   785    1
   656   787   788    1
   657   787   792    1
   658   788   789    1
   659   788   790    1
   660   788   791    1
   661   793   794    1
   662   793   798    1
   663   794   795    1
   664   794   796    1
   665   794   797    1
   666   799   800    1
   667   799   804    1
   668   800   801    1
   669   800   802    1
   670   800   803    1
   671   805   806    1
   672   805   810    1
   673   806   807    1
   674   806   808    1
   675   806   809    1
   676   811   812    1
   677   811   816    1
   678   812   813    1
   679   812   814    1
   680   812   815    1
   681   817   818    1
   682   817   822    1
   683   818   819    1
   684   818   820    1
   685   818   821    1
   686   823   824    1
   687   823   828    1
   688   824   825    1
   689   824   826    1
   690   824   827    1
   691   829   830    1
   692   829   834    1
   693   830   831    1
   694   830   832    1
   695   830   833    1
   696   835   836    1
   697   835   840    1
   698   836   837    1
   699   836   838    1
   700   836   839    1
   701   841   842    1
   702   841   846    1
   703   842   843    1
   704   842   844    1
   705   842   845    1
   706   847   848    1
   707   847   852    1
   708   848   849    1
   709   848   850    1
   710   848   851    1
   711   853   854    1
   712   853   858    1
   713   854   855    1
   714   854   856    1
   715   854   857    1
   716   859   860    1
   717   859   864    1
   718   860   861    1
   719   860   862    1
   720   860   863    1
   721   865   866    1
   722   865   870    1
   723   866   867    1
   724   866   868    1
   725   866   869    1
   726   871   872    1
   727   871   876    1
   728   872   873    1
   729   872   874    1
   730   872   875    1
   731   877   878    1
   732   877   882    1
   733   878   879    1
   734   878   880    1
   735   878   881    1
   736   883   884    1
   737   883   888    1
   738   884   885    1
   739   884   886    1
   740   884   887    1
   741   889   890    1
   742   889   894    1
   743   890   891    1
   744   890   892    1
   745   890   893    1
   746   895   896    1
   747   895   900    1
   748   896   897    1
   749   896   898    1
   750   896   899    1
   751   901   902    1
   752   901   906    1
   753   902   903    1
   754   902   904    1
   755   902   905    1
   756   907   908    1
   757   907   912    1
   758   908   909    1
   759   908   910    1
   760   908   911    1
   761   913   914    1
   762   913   918    1
   763   914   915    1
   764   914   916    1
   765   914   917    1
   766   919   920    1
   767   919   924    1
   768   920   921    1
   769   920   922    1
   770   920   923    1
   771   925   926    1
   772   925   930    1
   773   926   927    1
   774   926   928    1
   775   926   929    1
   776   931   932    1
   777   931   936    1
   778   932   933    1
   779   932   934    1
   780   932   935    1
   781   937   938    1
   782   937   942    1
   783   938   939    1
   784   938   940    1
   785   938   941    1
   786   943   944    1
   787   943   948    1
   788   944   945    1
   789   944   946    1
   790   944   947    1
   791   949   950    1
   792   949   954    1
   793   950   951    1
   794   950   952    1
   795   950   953    1
   796   955   956    1
   797   955   960    1
   798   956   957    1
   799   956   958    1
   800   956   959    1
   801   961   962    1
   802   961   966    1
   803   962   963    1
   804   962   964    1
   805   962   965    1
   806   967   968    1
   807   967   972    1
   808   968   969    1
   809   968   970    1
   810   968   971    1
