@<TRIPOS>MOLECULE
*****
 60 50 0 0 0
SMALL
GASTEIGER

@<TRIPOS>ATOM
      1 O           0.2078   -0.4807    0.9494 O.3     1  UNL1       -0.3982
      2 C          -0.6900    0.4774    1.4789 C.3     1  UNL1        0.0330
      3 H          -0.5526    1.4310    0.9631 H       1  UNL1        0.0521
      4 H          -0.5044    0.5997    2.5488 H       1  UNL1        0.0521
      5 H          -1.7137    0.1274    1.3266 H       1  UNL1        0.0521
      6 H           1.1072   -0.1429    1.0991 H       1  UNL1        0.2090
      7 O           2.5051   -0.3383    4.4383 O.3     2  UNL2       -0.3982
      8 C           2.9993   -0.7681    5.6935 C.3     2  UNL2        0.0330
      9 H           2.2242   -0.6429    6.4536 H       2  UNL2        0.0521
     10 H           3.8825   -0.1817    5.9585 H       2  UNL2        0.0521
     11 H           3.2726   -1.8236    5.6253 H       2  UNL2        0.0521
     12 H           2.2711    0.6011    4.5299 H       2  UNL2        0.2090
     13 O           4.7430    1.9182    2.3158 O.3     3  UNL3       -0.3982
     14 C           3.6719    1.3844    1.5593 C.3     3  UNL3        0.0330
     15 H           2.8038    1.2393    2.2072 H       3  UNL3        0.0521
     16 H           3.9750    0.4312    1.1193 H       3  UNL3        0.0521
     17 H           3.4156    2.0861    0.7621 H       3  UNL3        0.0521
     18 H           4.9479    1.2741    3.0149 H       3  UNL3        0.2090
     19 O           7.8490    0.4047    2.8788 O.3     4  UNL4       -0.3982
     20 C           8.1364   -0.5163    1.8426 C.3     4  UNL4        0.0330
     21 H           7.5012   -0.3044    0.9790 H       4  UNL4        0.0521
     22 H           7.9581   -1.5339    2.1987 H       4  UNL4        0.0521
     23 H           9.1852   -0.4118    1.5551 H       4  UNL4        0.0521
     24 H           6.9123    0.2886    3.1126 H       4  UNL4        0.2090
     25 O           6.6377   -0.1406    8.0177 O.3     5  UNL5       -0.3982
     26 C           6.2821   -0.1677    9.3878 C.3     5  UNL5        0.0330
     27 H           5.3916    0.4457    9.5463 H       5  UNL5        0.0521
     28 H           7.1117    0.2136    9.9880 H       5  UNL5        0.0521
     29 H           6.0682   -1.1987    9.6791 H       5  UNL5        0.0521
     30 H           6.8215    0.7863    7.7885 H       5  UNL5        0.2090
     31 O           4.5577    0.7288   15.6120 O.3     6  UNL6       -0.3982
     32 C           5.8582    0.3584   15.1924 C.3     6  UNL6        0.0330
     33 H           5.8014   -0.5469   14.5829 H       6  UNL6        0.0521
     34 H           6.4880    0.1824   16.0677 H       6  UNL6        0.0521
     35 H           6.2839    1.1696   14.5971 H       6  UNL6        0.0521
     36 H           4.2058   -0.0099   16.1375 H       6  UNL6        0.2090
     37 O          13.2434    0.4998   11.8419 O.3     7  UNL7       -0.3982
     38 C          11.8736    0.1421   11.8293 C.3     7  UNL7        0.0330
     39 H          11.7589   -0.8776   12.2052 H       7  UNL7        0.0521
     40 H          11.4873    0.2115   10.8095 H       7  UNL7        0.0521
     41 H          11.3209    0.8299   12.4735 H       7  UNL7        0.0521
     42 H          13.7078   -0.1276   11.2620 H       7  UNL7        0.2090
     43 O          15.1597   -0.2715   14.9841 O.3     8  UNL8       -0.3982
     44 C          13.9873   -0.7840   15.5902 C.3     8  UNL8        0.0330
     45 H          13.6047   -1.6187   14.9977 H       8  UNL8        0.0521
     46 H          13.2348    0.0056   15.6554 H       8  UNL8        0.0521
     47 H          14.2316   -1.1354   16.5954 H       8  UNL8        0.0521
     48 H          14.9118    0.0323   14.0942 H       8  UNL8        0.2090
     49 O          20.2733   -1.3364   12.1581 O.3     9  UNL9       -0.3982
     50 C          19.4843   -0.1750   12.3401 C.3     9  UNL9        0.0330
     51 H          18.4801   -0.4623   12.6615 H       9  UNL9        0.0521
     52 H          19.4326    0.3821   11.4015 H       9  UNL9        0.0521
     53 H          19.9452    0.4509   13.1078 H       9  UNL9        0.0521
     54 H          19.8398   -1.8717   11.4718 H       9  UNL9        0.2090
     55 O          24.9036    0.8472    3.6137 O.3    10  UNL10      -0.3982
     56 C          23.4878    0.8472    3.6137 C.3    10  UNL10       0.0330
     57 H          23.1225   -0.1655    3.4262 H      10  UNL10       0.0521
     58 H          23.1226    1.5269    2.8399 H      10  UNL10       0.0521
     59 H          23.1325    1.1855    4.5898 H      10  UNL10       0.0521
     60 H          25.1893    0.5429    2.7354 H      10  UNL10       0.2090
@<TRIPOS>BOND
     1     1     2    1
     2     1     6    1
     3     2     3    1
     4     2     4    1
     5     2     5    1
     6     7     8    1
     7     7    12    1
     8     8     9    1
     9     8    10    1
    10     8    11    1
    11    13    14    1
    12    13    18    1
    13    14    15    1
    14    14    16    1
    15    14    17    1
    16    19    20    1
    17    19    24    1
    18    20    21    1
    19    20    22    1
    20    20    23    1
    21    25    26    1
    22    25    30    1
    23    26    27    1
    24    26    28    1
    25    26    29    1
    26    31    32    1
    27    31    36    1
    28    32    33    1
    29    32    34    1
    30    32    35    1
    31    37    38    1
    32    37    42    1
    33    38    39    1
    34    38    40    1
    35    38    41    1
    36    43    44    1
    37    43    48    1
    38    44    45    1
    39    44    46    1
    40    44    47    1
    41    49    50    1
    42    49    54    1
    43    50    51    1
    44    50    52    1
    45    50    53    1
    46    55    56    1
    47    55    60    1
    48    56    57    1
    49    56    58    1
    50    56    59    1
