@<TRIPOS>MOLECULE
*****
 2376 1980 0 0 0
SMALL
GASTEIGER

@<TRIPOS>ATOM
      1 O          -0.9739   -1.0726    0.4047 O.3     1  UNL1       -0.3982
      2 C          -1.6300   -1.0726   -0.8499 C.3     1  UNL1        0.0330
      3 H          -2.4064   -1.8416   -0.8562 H       1  UNL1        0.0521
      4 H          -0.9030   -1.2673   -1.6422 H       1  UNL1        0.0521
      5 H          -2.0881   -0.0940   -1.0113 H       1  UNL1        0.0521
      6 H          -0.5775   -1.9530    0.5198 H       1  UNL1        0.2090
      7 O          -0.6221   -1.0363    2.3258 O.3     2  UNL2       -0.3982
      8 C          -2.0379   -1.0363    2.3258 C.3     2  UNL2        0.0330
      9 H          -2.4032   -1.8053    3.0110 H       2  UNL2        0.0521
     10 H          -2.4031   -1.2310    1.3145 H       2  UNL2        0.0521
     11 H          -2.3932   -0.0577    2.6570 H       2  UNL2        0.0521
     12 H          -0.3364   -1.9167    2.0278 H       2  UNL2        0.2090
     13 O          -0.2195   -0.2944    4.6017 O.3     3  UNL3       -0.3982
     14 C          -1.6353   -0.2944    4.6017 C.3     3  UNL3        0.0330
     15 H          -2.0006    0.3558    3.8029 H       3  UNL3        0.0521
     16 H          -2.0005    0.0587    5.5692 H       3  UNL3        0.0521
     17 H          -1.9906   -1.3133    4.4305 H       3  UNL3        0.0521
     18 H           0.0662    0.6222    4.7559 H       3  UNL3        0.2090
     19 O          -0.4626   -0.0341    6.8476 O.3     4  UNL4       -0.3982
     20 C          -1.8784   -0.0341    6.8476 C.3     4  UNL4        0.0330
     21 H          -2.2437    0.2167    7.8465 H       4  UNL4        0.0521
     22 H          -2.2436   -1.0205    6.5515 H       4  UNL4        0.0521
     23 H          -2.2337    0.7128    6.1338 H       4  UNL4        0.0521
     24 H          -0.1769   -0.7062    7.4897 H       4  UNL4        0.2090
     25 O          -0.6221   -1.1000    9.3637 O.3     5  UNL5       -0.3982
     26 C          -2.0379   -1.1000    9.3637 C.3     5  UNL5        0.0330
     27 H          -2.4032   -1.8690   10.0489 H       5  UNL5        0.0521
     28 H          -2.4031   -1.2947    8.3524 H       5  UNL5        0.0521
     29 H          -2.3932   -0.1214    9.6949 H       5  UNL5        0.0521
     30 H          -0.3364   -1.9804    9.0657 H       5  UNL5        0.2090
     31 O          -0.4021    0.7575   11.7115 O.3     6  UNL6       -0.3982
     32 C          -1.8179    0.7575   11.7115 C.3     6  UNL6        0.0330
     33 H          -2.1832    0.4895   10.7170 H       6  UNL6        0.0521
     34 H          -2.1831    1.7488   11.9905 H       6  UNL6        0.0521
     35 H          -2.1732    0.0229   12.4379 H       6  UNL6        0.0521
     36 H          -0.1164    1.4184   11.0579 H       6  UNL6        0.2090
     37 O           0.1685   -1.9556   12.3696 O.3     7  UNL7       -0.3982
     38 C          -0.8077   -1.3884   13.2239 C.3     7  UNL7        0.0330
     39 H          -0.5450   -0.3499   13.4401 H       7  UNL7        0.0521
     40 H          -0.8592   -1.9632   14.1518 H       7  UNL7        0.0521
     41 H          -1.7787   -1.4199   12.7241 H       7  UNL7        0.0521
     42 H           1.0187   -1.9137   12.8397 H       7  UNL7        0.2090
     43 O          -0.2921   -1.0726   16.3653 O.3     8  UNL8       -0.3982
     44 C          -1.7079   -1.0726   16.3653 C.3     8  UNL8        0.0330
     45 H          -2.0732   -1.8416   17.0505 H       8  UNL8        0.0521
     46 H          -2.0731   -1.2673   15.3540 H       8  UNL8        0.0521
     47 H          -2.0632   -0.0940   16.6965 H       8  UNL8        0.0521
     48 H          -0.0064   -1.9530   16.0673 H       8  UNL8        0.2090
     49 O          -2.4004   -0.3625   19.1499 O.3     9  UNL9       -0.3982
     50 C          -1.1414   -0.3625   18.5022 C.3     9  UNL9        0.0330
     51 H          -0.3616   -0.6305   19.2193 H       9  UNL9        0.0521
     52 H          -0.9444    0.6288   18.0869 H       9  UNL9        0.0521
     53 H          -1.1579   -1.0971   17.6936 H       9  UNL9        0.0521
     54 H          -2.3554    0.2984   19.8618 H       9  UNL9        0.2090
     55 O          -0.2921   -1.1000   21.1016 O.3    10  UNL10      -0.3982
     56 C          -1.7079   -1.1000   21.1016 C.3    10  UNL10       0.0330
     57 H          -2.0732   -1.8690   21.7868 H      10  UNL10       0.0521
     58 H          -2.0731   -1.2947   20.0903 H      10  UNL10       0.0521
     59 H          -2.0632   -0.1214   21.4328 H      10  UNL10       0.0521
     60 H          -0.0064   -1.9804   20.8036 H      10  UNL10       0.2090
     61 O          -0.3284    0.4508   23.2839 O.3    11  UNL11      -0.3982
     62 C          -1.7442    0.4508   23.2839 C.3    11  UNL11       0.0330
     63 H          -2.1095    0.2382   24.2917 H      11  UNL11       0.0521
     64 H          -2.1094   -0.3058   22.5852 H      11  UNL11       0.0521
     65 H          -2.0995    1.4351   22.9701 H      11  UNL11       0.0521
     66 H          -0.0427   -0.4347   23.5662 H      11  UNL11       0.2090
     67 O           0.6353    1.3913   -0.0693 O.3    12  UNL12      -0.3982
     68 C          -0.7805    1.3913   -0.0693 C.3    12  UNL12       0.0330
     69 H          -1.1458    1.6421    0.9296 H      12  UNL12       0.0521
     70 H          -1.1457    0.4049   -0.3654 H      12  UNL12       0.0521
     71 H          -1.1358    2.1382   -0.7831 H      12  UNL12       0.0521
     72 H           0.9210    0.7192    0.5728 H      12  UNL12       0.2090
     73 O          -0.6221    2.2439    2.1443 O.3    13  UNL13      -0.3982
     74 C          -2.0379    2.2439    2.1443 C.3    13  UNL13       0.0330
     75 H          -2.4032    3.2531    2.3503 H      13  UNL13       0.0521
     76 H          -2.4031    1.5502    2.9055 H      13  UNL13       0.0521
     77 H          -2.3932    1.9236    1.1621 H      13  UNL13       0.0521
     78 H          -0.3364    2.5321    3.0280 H      13  UNL13       0.2090
     79 O           0.4516    2.5102    4.6065 O.3    14  UNL14      -0.3982
     80 C          -0.9642    2.5102    4.6065 C.3    14  UNL14       0.0330
     81 H          -1.3295    2.7610    5.6054 H      14  UNL14       0.0521
     82 H          -1.3294    1.5238    4.3104 H      14  UNL14       0.0521
     83 H          -1.3195    3.2571    3.8927 H      14  UNL14       0.0521
     84 H           0.7373    1.8381    5.2486 H      14  UNL14       0.2090
     85 O          -0.4879    4.7311    7.1031 O.3    15  UNL15      -0.3982
     86 C          -1.9037    4.7311    7.1031 C.3    15  UNL15       0.0330
     87 H          -2.2690    3.9280    6.4582 H      15  UNL15       0.0521
     88 H          -2.2689    5.6962    6.7437 H      15  UNL15       0.0521
     89 H          -2.2590    4.5665    8.1231 H      15  UNL15       0.0521
     90 H          -0.2022    4.8792    6.1855 H      15  UNL15       0.2090
     91 O          -1.1439    0.9854    8.4935 O.3    16  UNL16      -0.3982
     92 C          -0.1441    0.9854    9.4959 C.3    16  UNL16       0.0330
     93 H           0.5991    0.2164    9.2707 H      16  UNL16       0.0521
     94 H          -0.6022    0.7907   10.4687 H      16  UNL16       0.0521
     95 H           0.3414    1.9640    9.5136 H      16  UNL16       0.0521
     96 H          -1.5566    0.1050    8.5017 H      16  UNL16       0.2090
     97 O           0.6716    2.4733   11.6724 O.3    17  UNL17      -0.3982
     98 C          -0.7442    2.4733   11.6724 C.3    17  UNL17       0.0330
     99 H          -1.1095    1.7283   12.3836 H      17  UNL17       0.0521
    100 H          -1.1094    2.2439   10.6684 H      17  UNL17       0.0521
    101 H          -1.0995    3.4627   11.9698 H      17  UNL17       0.0521
    102 H           0.9573    1.5832   11.4048 H      17  UNL17       0.2090
    103 O           0.5877    1.4155   13.9911 O.3    18  UNL18      -0.3982
    104 C          -0.0684    2.6701   13.9911 C.3    18  UNL18       0.0330
    105 H          -0.9191    2.6375   14.6763 H      18  UNL18       0.0521
    106 H          -0.4101    2.9035   12.9798 H      18  UNL18       0.0521
    107 H           0.6342    3.4384   14.3223 H      18  UNL18       0.0521
    108 H          -0.0601    0.7544   13.6931 H      18  UNL18       0.2090
    109 O          -0.6221    1.6291   16.3774 O.3    19  UNL19      -0.3982
    110 C          -2.0379    1.6291   16.3774 C.3    19  UNL19       0.0330
    111 H          -2.4032    0.8601   17.0626 H      19  UNL19       0.0521
    112 H          -2.4031    1.4344   15.3661 H      19  UNL19       0.0521
    113 H          -2.3932    2.6077   16.7086 H      19  UNL19       0.0521
    114 H          -0.3364    0.7487   16.0794 H      19  UNL19       0.2090
    115 O          -0.8877    5.3984   18.6449 O.3    20  UNL20      -0.3982
    116 C          -1.5438    4.1438   18.6449 C.3    20  UNL20       0.0330
    117 H          -2.3815    4.1696   17.9436 H      20  UNL20       0.0521
    118 H          -1.9045    3.9203   19.6519 H      20  UNL20       0.0521
    119 H          -0.8352    3.3723   18.3346 H      20  UNL20       0.0521
    120 H          -1.5410    6.0624   18.9242 H      20  UNL20       0.2090
    121 O          -1.0410    1.0954   21.8261 O.3    21  UNL21      -0.3982
    122 C          -0.1937    1.0954   20.6918 C.3    21  UNL21       0.0330
    123 H          -0.5240    0.3264   19.9891 H      21  UNL21       0.0521
    124 H           0.8351    0.9007   21.0045 H      21  UNL21       0.0521
    125 H          -0.2464    2.0740   20.2090 H      21  UNL21       0.0521
    126 H          -0.9732    0.2150   22.2333 H      21  UNL21       0.2090
    127 O          -0.7335    3.2435   22.9516 O.3    22  UNL22      -0.3982
    128 C          -0.1731    2.1120   23.5920 C.3    22  UNL22       0.0330
    129 H           0.4201    1.5417   22.8728 H      22  UNL22       0.0521
    130 H          -0.9735    1.4877   23.9966 H      22  UNL22       0.0521
    131 H           0.4714    2.4481   24.4075 H      22  UNL22       0.0521
    132 H          -1.3000    2.9139   22.2333 H      22  UNL22       0.2090
    133 O           0.6474    4.6788   -1.1122 O.3    23  UNL23      -0.3982
    134 C          -0.7684    4.6788   -1.1122 C.3    23  UNL23       0.0330
    135 H          -1.1337    4.4108   -2.1067 H      23  UNL23       0.0521
    136 H          -1.1336    5.6701   -0.8332 H      23  UNL23       0.0521
    137 H          -1.1237    3.9442   -0.3858 H      23  UNL23       0.0521
    138 H           0.9331    5.3397   -1.7658 H      23  UNL23       0.2090
    139 O          -0.3534    4.9797    3.3510 O.3    24  UNL24      -0.3982
    140 C          -1.0095    4.9797    2.0964 C.3    24  UNL24       0.0330
    141 H          -1.7859    4.2107    2.0901 H      24  UNL24       0.0521
    142 H          -0.2825    4.7850    1.3041 H      24  UNL24       0.0521
    143 H          -1.4676    5.9583    1.9350 H      24  UNL24       0.0521
    144 H           0.0430    4.0993    3.4661 H      24  UNL24       0.2090
    145 O          -0.1821    7.0130    4.6292 O.3    25  UNL25      -0.3982
    146 C          -1.5979    7.0130    4.6292 C.3    25  UNL25       0.0330
    147 H          -1.9632    6.4910    5.5171 H      25  UNL25       0.0521
    148 H          -1.9631    6.5178    3.7263 H      25  UNL25       0.0521
    149 H          -1.9532    8.0460    4.6446 H      25  UNL25       0.0521
    150 H           0.1036    6.0837    4.6154 H      25  UNL25       0.2090
    151 O           0.7079    4.8788    4.9544 O.3    26  UNL26      -0.3982
    152 C          -0.7079    4.8788    4.9544 C.3    26  UNL26       0.0330
    153 H          -1.0732    4.3603    5.8444 H      26  UNL26       0.0521
    154 H          -1.0731    4.3800    4.0534 H      26  UNL26       0.0521
    155 H          -1.0632    5.9119    4.9657 H      26  UNL26       0.0521
    156 H           0.9936    3.9494    4.9443 H      26  UNL26       0.2090
    157 O           0.6837    4.9456    9.1492 O.3    27  UNL27      -0.3982
    158 C          -0.7321    4.9456    9.1492 C.3    27  UNL27       0.0330
    159 H          -1.0974    5.1964   10.1481 H      27  UNL27       0.0521
    160 H          -1.0973    3.9592    8.8531 H      27  UNL27       0.0521
    161 H          -1.0874    5.6925    8.4354 H      27  UNL27       0.0521
    162 H           0.9694    4.2735    9.7913 H      27  UNL27       0.2090
    163 O          -0.6221    4.6519   11.7258 O.3    28  UNL28      -0.3982
    164 C          -2.0379    4.6519   11.7258 C.3    28  UNL28       0.0330
    165 H          -2.4032    3.8829   12.4110 H      28  UNL28       0.0521
    166 H          -2.4031    4.4572   10.7145 H      28  UNL28       0.0521
    167 H          -2.3932    5.6305   12.0570 H      28  UNL28       0.0521
    168 H          -0.3364    3.7715   11.4278 H      28  UNL28       0.2090
    169 O          -0.2547    5.9583   13.9768 O.3    29  UNL29      -0.3982
    170 C          -1.6705    5.9583   13.9768 C.3    29  UNL29       0.0330
    171 H          -2.0358    5.6903   12.9823 H      29  UNL29       0.0521
    172 H          -2.0357    6.9496   14.2558 H      29  UNL29       0.0521
    173 H          -2.0258    5.2237   14.7032 H      29  UNL29       0.0521
    174 H           0.0310    6.6192   13.3232 H      29  UNL29       0.2090
    175 O          -1.0289    2.9808   17.2592 O.3    30  UNL30      -0.3982
    176 C          -0.1816    2.9808   16.1249 C.3    30  UNL30       0.0330
    177 H          -0.5119    2.2118   15.4222 H      30  UNL30       0.0521
    178 H           0.8472    2.7861   16.4376 H      30  UNL30       0.0521
    179 H          -0.2343    3.9594   15.6421 H      30  UNL30       0.0521
    180 H          -0.9611    2.1004   17.6664 H      30  UNL30       0.2090
    181 O           0.7079    4.8708   16.7758 O.3    31  UNL31      -0.3982
    182 C          -0.7079    4.8708   16.7758 C.3    31  UNL31       0.0330
    183 H          -1.0732    4.1018   17.4610 H      31  UNL31       0.0521
    184 H          -1.0731    4.6761   15.7645 H      31  UNL31       0.0521
    185 H          -1.0632    5.8494   17.1070 H      31  UNL31       0.0521
    186 H           0.9936    3.9904   16.4778 H      31  UNL31       0.2090
    187 O          -0.9007    3.6199   21.0895 O.3    32  UNL32      -0.3982
    188 C          -1.5568    4.8745   21.0895 C.3    32  UNL32       0.0330
    189 H          -2.4075    4.8419   21.7747 H      32  UNL32       0.0521
    190 H          -1.8985    5.1079   20.0782 H      32  UNL32       0.0521
    191 H          -0.8542    5.6428   21.4207 H      32  UNL32       0.0521
    192 H          -1.5485    2.9588   20.7915 H      32  UNL32       0.2090
    193 O          -0.2184    5.0218   23.4878 O.3    33  UNL33      -0.3982
    194 C          -1.6342    5.0218   23.4878 C.3    33  UNL33       0.0330
    195 H          -1.9995    4.3155   22.7382 H      33  UNL33       0.0521
    196 H          -1.9994    6.0273   23.2651 H      33  UNL33       0.0521
    197 H          -1.9895    4.7179   24.4753 H      33  UNL33       0.0521
    198 H           0.0673    5.2952   22.5995 H      33  UNL33       0.2090
    199 O           0.5253    7.0365    0.1101 O.3    34  UNL34      -0.3982
    200 C          -0.8905    7.0365    0.1101 C.3    34  UNL34       0.0330
    201 H          -1.2558    6.9478   -0.9160 H      34  UNL34       0.0521
    202 H          -1.2557    7.9632    0.5594 H      34  UNL34       0.0521
    203 H          -1.2458    6.1855    0.6959 H      34  UNL34       0.0521
    204 H           0.8110    7.8021   -0.4169 H      34  UNL34       0.2090
    205 O          -0.2426    9.2151    2.4225 O.3    35  UNL35      -0.3982
    206 C          -1.6584    9.2151    2.4225 C.3    35  UNL35       0.0330
    207 H          -2.0237    8.5088    1.6729 H      35  UNL35       0.0521
    208 H          -2.0236   10.2206    2.1998 H      35  UNL35       0.0521
    209 H          -2.0137    8.9112    3.4100 H      35  UNL35       0.0521
    210 H           0.0431    9.4885    1.5342 H      35  UNL35       0.2090
    211 O           0.1459    7.0244    1.6024 O.3    36  UNL36      -0.3982
    212 C          -0.5102    7.0244    2.8570 C.3    36  UNL36       0.0330
    213 H          -1.5888    6.9357    2.7053 H      36  UNL36       0.0521
    214 H          -0.2813    7.9511    3.3888 H      36  UNL36       0.0521
    215 H          -0.1557    6.1734    3.4433 H      36  UNL36       0.0521
    216 H          -0.1888    7.7900    1.1050 H      36  UNL36       0.2090
    217 O           0.6595    7.3810    6.7992 O.3    37  UNL37      -0.3982
    218 C          -0.7563    7.3810    6.7992 C.3    37  UNL37       0.0330
    219 H          -1.1216    7.6318    7.7981 H      37  UNL37       0.0521
    220 H          -1.1215    6.3946    6.5031 H      37  UNL37       0.0521
    221 H          -1.1116    8.1279    6.0854 H      37  UNL37       0.0521
    222 H           0.9452    6.7089    7.4413 H      37  UNL37       0.2090
    223 O          -0.4384    9.1976    9.5067 O.3    38  UNL38      -0.3982
    224 C          -1.8542    9.1976    9.5067 C.3    38  UNL38       0.0330
    225 H          -2.2195    8.2060    9.7853 H      38  UNL38       0.0521
    226 H          -2.2194    9.4661    8.5125 H      38  UNL38       0.0521
    227 H          -2.2095    9.9318   10.2335 H      38  UNL38       0.0521
    228 H          -0.1527    8.5371    8.8528 H      38  UNL38       0.2090
    229 O          -0.9442    5.6725   12.5108 O.3    39  UNL39      -0.3982
    230 C          -0.0969    5.6725   11.3765 C.3    39  UNL39       0.0330
    231 H          -0.4272    4.9035   10.6738 H      39  UNL39       0.0521
    232 H           0.9319    5.4778   11.6892 H      39  UNL39       0.0521
    233 H          -0.1496    6.6511   10.8937 H      39  UNL39       0.0521
    234 H          -0.8764    4.7921   12.9180 H      39  UNL39       0.2090
    235 O           0.7442    7.2236   13.9427 O.3    40  UNL40      -0.3982
    236 C          -0.6716    7.2236   13.9427 C.3    40  UNL40       0.0330
    237 H          -1.0369    8.2328   14.1487 H      40  UNL40       0.0521
    238 H          -1.0368    6.5299   14.7039 H      40  UNL40       0.0521
    239 H          -1.0269    6.9033   12.9605 H      40  UNL40       0.0521
    240 H           1.0299    7.5118   14.8264 H      40  UNL40       0.2090
    241 O          -0.4879    6.7683   16.3774 O.3    41  UNL41      -0.3982
    242 C          -1.9037    6.7683   16.3774 C.3    41  UNL41       0.0330
    243 H          -2.2690    5.9993   17.0626 H      41  UNL41       0.0521
    244 H          -2.2689    6.5736   15.3661 H      41  UNL41       0.0521
    245 H          -2.2590    7.7469   16.7086 H      41  UNL41       0.0521
    246 H          -0.2022    5.8879   16.0794 H      41  UNL41       0.2090
    247 O          -0.2921   10.2610   18.2907 O.3    42  UNL42      -0.3982
    248 C          -1.7079   10.2610   18.2907 C.3    42  UNL42       0.0330
    249 H          -2.0732   11.2702   18.4967 H      42  UNL42       0.0521
    250 H          -2.0731    9.5673   19.0519 H      42  UNL42       0.0521
    251 H          -2.0632    9.9407   17.3085 H      42  UNL42       0.0521
    252 H          -0.0064   10.5492   19.1744 H      42  UNL42       0.2090
    253 O          -0.7293    4.5371   21.7414 O.3    43  UNL43      -0.3982
    254 C          -0.3367    5.2879   20.6071 C.3    43  UNL43       0.0330
    255 H           0.1917    4.6388   19.9044 H      43  UNL43       0.0521
    256 H           0.3126    6.1093   20.9198 H      43  UNL43       0.0521
    257 H          -1.2283    5.6946   20.1243 H      43  UNL43       0.0521
    258 H           0.0823    4.1891   22.1486 H      43  UNL43       0.2090
    259 O           0.1322    6.8881   24.2560 O.3    44  UNL44      -0.3982
    260 C          -0.3456    7.2110   22.9629 C.3    44  UNL44       0.0330
    261 H          -0.7007    8.2445   22.9523 H      44  UNL44       0.0521
    262 H          -1.1587    6.5323   22.6941 H      44  UNL44       0.0521
    263 H           0.4704    7.1009   22.2449 H      44  UNL44       0.0521
    264 H          -0.6134    6.9948   24.8710 H      44  UNL44       0.2090
    265 O          -0.3416    9.7196   -1.3861 O.3    45  UNL45      -0.3982
    266 C          -1.7574    9.7196   -1.3861 C.3    45  UNL45       0.0330
    267 H          -2.1227    9.9704   -0.3872 H      45  UNL45       0.0521
    268 H          -2.1226    8.7332   -1.6822 H      45  UNL45       0.0521
    269 H          -2.1127   10.4665   -2.0999 H      45  UNL45       0.0521
    270 H          -0.0559    9.0475   -0.7440 H      45  UNL45       0.2090
    271 O           0.7079    9.7484    0.3434 O.3    46  UNL46      -0.3982
    272 C          -0.7079    9.7484    0.3434 C.3    46  UNL46       0.0330
    273 H          -1.0732    9.3578    1.2964 H      46  UNL46       0.0521
    274 H          -1.0731    9.1299   -0.4801 H      46  UNL46       0.0521
    275 H          -1.0632   10.7731    0.2119 H      46  UNL46       0.0521
    276 H           0.9936    8.8265    0.4617 H      46  UNL46       0.2090
    277 O           0.6837   10.6109    4.7653 O.3    47  UNL47      -0.3982
    278 C          -0.7321   10.6109    4.7653 C.3    47  UNL47       0.0330
    279 H          -1.0974    9.6474    4.4014 H      47  UNL47       0.0521
    280 H          -1.0973   11.4169    4.1242 H      47  UNL47       0.0521
    281 H          -1.0874   10.7709    5.7860 H      47  UNL47       0.0521
    282 H           0.9694   10.4671    3.8471 H      47  UNL47       0.2090
    283 O          -0.5858   11.5956    7.0720 O.3    48  UNL48      -0.3982
    284 C          -2.0016   11.5956    7.0720 C.3    48  UNL48       0.0330
    285 H          -2.3669   10.6040    7.3506 H      48  UNL48       0.0521
    286 H          -2.3668   11.8641    6.0778 H      48  UNL48       0.0521
    287 H          -2.3569   12.3298    7.7988 H      48  UNL48       0.0521
    288 H          -0.3001   10.9351    6.4181 H      48  UNL48       0.2090
    289 O           0.0412    9.5324    8.2974 O.3    49  UNL49      -0.3982
    290 C          -0.6148    9.5324    7.0428 C.3    49  UNL49       0.0330
    291 H           0.1252    9.4437    6.2436 H      49  UNL49       0.0521
    292 H          -1.1821   10.4591    6.9273 H      49  UNL49       0.0521
    293 H          -1.2986    8.6814    6.9993 H      49  UNL49       0.0521
    294 H           0.6406   10.2980    8.3064 H      49  UNL49       0.2090
    295 O           0.7684    9.3825   11.4950 O.3    50  UNL50      -0.3982
    296 C          -0.6474    9.3825   11.4950 C.3    50  UNL50       0.0330
    297 H          -1.0127   10.3798   11.2375 H      50  UNL50       0.0521
    298 H          -1.0126    9.0929   12.4833 H      50  UNL50       0.0521
    299 H          -1.0027    8.6639   10.7527 H      50  UNL50       0.0521
    300 H           1.0541   10.0290   12.1628 H      50  UNL50       0.2090
    301 O          -0.4384   11.6446   14.1309 O.3    51  UNL51      -0.3982
    302 C          -1.8542   11.6446   14.1309 C.3    51  UNL51       0.0330
    303 H          -2.2195   11.7025   13.1026 H      51  UNL51       0.0521
    304 H          -2.2194   12.4981   14.7073 H      51  UNL51       0.0521
    305 H          -2.2095   10.7191   14.5899 H      51  UNL51       0.0521
    306 H          -0.1527   12.4773   13.7180 H      51  UNL51       0.2090
    307 O          -1.0531    8.2916   17.1382 O.3    52  UNL52      -0.3982
    308 C          -0.2058    8.2916   16.0039 C.3    52  UNL52       0.0330
    309 H          -0.5361    7.5226   15.3012 H      52  UNL52       0.0521
    310 H           0.8230    8.0969   16.3166 H      52  UNL52       0.0521
    311 H          -0.2585    9.2702   15.5211 H      52  UNL52       0.0521
    312 H          -0.9853    7.4112   17.5454 H      52  UNL52       0.2090
    313 O           0.6232    9.3630   18.8496 O.3    53  UNL53      -0.3982
    314 C          -0.7926    9.3630   18.8496 C.3    53  UNL53       0.0330
    315 H          -1.1579    9.2743   17.8235 H      53  UNL53       0.0521
    316 H          -1.1578   10.2897   19.2989 H      53  UNL53       0.0521
    317 H          -1.1479    8.5120   19.4354 H      53  UNL53       0.0521
    318 H           0.9089   10.1286   18.3226 H      53  UNL53       0.2090
    319 O          -0.7665    8.7096   21.0411 O.3    54  UNL54      -0.3982
    320 C          -1.4226    9.9642   21.0411 C.3    54  UNL54       0.0330
    321 H          -2.2733    9.9316   21.7263 H      54  UNL54       0.0521
    322 H          -1.7643   10.1976   20.0298 H      54  UNL54       0.0521
    323 H          -0.7200   10.7325   21.3723 H      54  UNL54       0.0521
    324 H          -1.4143    8.0485   20.7431 H      54  UNL54       0.2090
    325 O          -0.6221   11.0001   23.1733 O.3    55  UNL55      -0.3982
    326 C          -2.0379   11.0001   23.1733 C.3    55  UNL55       0.0330
    327 H          -2.4032   12.0093   23.3793 H      55  UNL55       0.0521
    328 H          -2.4031   10.3064   23.9345 H      55  UNL55       0.0521
    329 H          -2.3932   10.6798   22.1911 H      55  UNL55       0.0521
    330 H          -0.3364   11.2883   24.0570 H      55  UNL55       0.2090
    331 O           0.8300   11.8789    0.0990 O.3    56  UNL56      -0.3982
    332 C          -0.5858   11.8789    0.0990 C.3    56  UNL56       0.0330
    333 H          -0.9511   11.3121   -0.7611 H      56  UNL56       0.0521
    334 H          -0.9510   12.9077    0.0526 H      56  UNL56       0.0521
    335 H          -0.9411   11.4096    1.0194 H      56  UNL56       0.0521
    336 H           1.1157   12.3011   -0.7291 H      56  UNL56       0.2090
    337 O           0.7321   11.7974    2.4206 O.3    57  UNL57      -0.3982
    338 C          -0.6837   11.7974    2.4206 C.3    57  UNL57       0.0330
    339 H          -1.0490   12.1677    1.4595 H      57  UNL57       0.0521
    340 H          -1.0489   12.4333    3.2307 H      57  UNL57       0.0521
    341 H          -1.0390   10.7757    2.5738 H      57  UNL57       0.0521
    342 H           1.0178   12.7166    2.2827 H      57  UNL57       0.2090
    343 O          -0.1821   14.0097    4.4822 O.3    58  UNL58      -0.3982
    344 C          -1.5979   14.0097    4.4822 C.3    58  UNL58       0.0330
    345 H          -1.9632   15.0189    4.6882 H      58  UNL58       0.0521
    346 H          -1.9631   13.3160    5.2434 H      58  UNL58       0.0521
    347 H          -1.9532   13.6894    3.5000 H      58  UNL58       0.0521
    348 H           0.1036   14.2979    5.3659 H      58  UNL58       0.2090
    349 O          -0.0094   12.1959    4.0013 O.3    59  UNL59      -0.3982
    350 C          -0.6655   12.1959    5.2559 C.3    59  UNL59       0.0330
    351 H           0.0098   11.8053    6.0213 H      59  UNL59       0.0521
    352 H          -1.5644   11.5774    5.1980 H      59  UNL59       0.0521
    353 H          -0.9467   13.2206    5.5098 H      59  UNL59       0.0521
    354 H           0.2278   11.2740    3.8029 H      59  UNL59       0.2090
    355 O           0.7079   11.7974    9.4343 O.3    60  UNL60      -0.3982
    356 C          -0.7079   11.7974    9.4343 C.3    60  UNL60       0.0330
    357 H          -1.0732   12.1677    8.4732 H      60  UNL60       0.0521
    358 H          -1.0731   12.4333   10.2444 H      60  UNL60       0.0521
    359 H          -1.0632   10.7757    9.5875 H      60  UNL60       0.0521
    360 H           0.9936   12.7166    9.2964 H      60  UNL60       0.2090
    361 O           0.4779   14.4255   11.4959 O.3    61  UNL61      -0.3982
    362 C          -0.9379   14.4255   11.4959 C.3    61  UNL61       0.0330
    363 H          -1.3032   15.4347   11.7019 H      61  UNL61       0.0521
    364 H          -1.3031   13.7318   12.2571 H      61  UNL61       0.0521
    365 H          -1.2932   14.1052   10.5137 H      61  UNL61       0.0521
    366 H           0.7636   14.7137   12.3796 H      61  UNL61       0.2090
    367 O          -0.0161   13.0694   11.9966 O.3    62  UNL62      -0.3982
    368 C          -0.6722   11.8148   11.9966 C.3    62  UNL62       0.0330
    369 H          -0.4953   11.3101   12.9496 H      62  UNL62       0.0521
    370 H          -0.2933   11.2046   11.1731 H      62  UNL62       0.0521
    371 H          -1.7449   11.9748   11.8651 H      62  UNL62       0.0521
    372 H           0.9332   12.8954   12.1149 H      62  UNL62       0.2090
    373 O           0.7200   11.8300   16.1829 O.3    63  UNL63      -0.3982
    374 C          -0.6958   11.8300   16.1829 C.3    63  UNL63       0.0330
    375 H          -1.0611   12.8273   15.9254 H      63  UNL63       0.0521
    376 H          -1.0610   11.5404   17.1712 H      63  UNL63       0.0521
    377 H          -1.0511   11.1114   15.4406 H      63  UNL63       0.0521
    378 H           1.0057   12.4765   16.8507 H      63  UNL63       0.2090
    379 O          -0.1095   12.0670   18.7032 O.3    64  UNL64      -0.3982
    380 C          -1.5253   12.0670   18.7032 C.3    64  UNL64       0.0330
    381 H          -1.8906   11.2980   19.3884 H      64  UNL64       0.0521
    382 H          -1.8905   11.8723   17.6919 H      64  UNL64       0.0521
    383 H          -1.8806   13.0456   19.0344 H      64  UNL64       0.0521
    384 H           0.1762   11.1866   18.4052 H      64  UNL64       0.2090
    385 O          -0.2547   13.1545   21.1841 O.3    65  UNL65      -0.3982
    386 C          -1.6705   13.1545   21.1841 C.3    65  UNL65       0.0330
    387 H          -2.0358   12.8865   20.1896 H      65  UNL65       0.0521
    388 H          -2.0357   14.1458   21.4631 H      65  UNL65       0.0521
    389 H          -2.0258   12.4199   21.9105 H      65  UNL65       0.0521
    390 H           0.0310   13.8154   20.5305 H      65  UNL65       0.2090
    391 O           0.3405   12.2044   23.4043 O.3    66  UNL66      -0.3982
    392 C          -1.0753   12.2044   23.4043 C.3    66  UNL66       0.0330
    393 H          -1.4406   13.2136   23.6103 H      66  UNL66       0.0521
    394 H          -1.4405   11.5107   24.1655 H      66  UNL66       0.0521
    395 H          -1.4306   11.8841   22.4221 H      66  UNL66       0.0521
    396 H           0.6262   12.4926   24.2880 H      66  UNL66       0.2090
    397 O          -1.5593   16.4159   -1.3787 O.3    67  UNL67      -0.3982
    398 C          -0.3004   16.1257   -0.7996 C.3    67  UNL67       0.0330
    399 H          -0.0982   16.8331    0.0084 H      67  UNL67       0.0521
    400 H           0.4779   16.1963   -1.5633 H      67  UNL67       0.0521
    401 H          -0.3206   15.1107   -0.3959 H      67  UNL67       0.0521
    402 H          -1.5110   17.3221   -1.7281 H      67  UNL67       0.2090
    403 O          -0.9007   15.6662    0.8879 O.3    68  UNL68      -0.3982
    404 C          -1.5568   16.9208    0.8879 C.3    68  UNL68       0.0330
    405 H          -2.4075   16.8882    1.5731 H      68  UNL68       0.0521
    406 H          -1.8985   17.1542   -0.1234 H      68  UNL68       0.0521
    407 H          -0.8542   17.6891    1.2191 H      68  UNL68       0.0521
    408 H          -1.5485   15.0051    0.5899 H      68  UNL68       0.2090
    409 O           0.0109   14.5281    1.7686 O.3    69  UNL69      -0.3982
    410 C          -0.6451   14.5281    3.0233 C.3    69  UNL69       0.0330
    411 H          -0.0418   15.0765    3.7510 H      69  UNL69       0.0521
    412 H          -0.7926   13.4985    3.3583 H      69  UNL69       0.0521
    413 H          -1.6164   15.0168    2.9163 H      69  UNL69       0.0521
    414 H           0.8690   14.0884    1.8949 H      69  UNL69       0.2090
    415 O          -0.9007   13.5551    6.9290 O.3    70  UNL70      -0.3982
    416 C          -1.5568   14.8097    6.9290 C.3    70  UNL70       0.0330
    417 H          -2.4075   14.7771    7.6142 H      70  UNL70       0.0521
    418 H          -1.8985   15.0431    5.9177 H      70  UNL70       0.0521
    419 H          -0.8542   15.5780    7.2602 H      70  UNL70       0.0521
    420 H          -1.5485   12.8940    6.6310 H      70  UNL70       0.2090
    421 O          -0.2063   16.2566    9.4363 O.3    71  UNL71      -0.3982
    422 C          -1.6221   16.2566    9.4363 C.3    71  UNL71       0.0330
    423 H          -1.9874   15.2511    9.2129 H      71  UNL71       0.0521
    424 H          -1.9873   16.9632    8.6871 H      71  UNL71       0.0521
    425 H          -1.9774   16.5600   10.4238 H      71  UNL71       0.0521
    426 H           0.0794   15.9837    8.5478 H      71  UNL71       0.2090
    427 O           0.1332   13.5590    9.6891 O.3    72  UNL72      -0.3982
    428 C          -0.5229   14.8137    9.6891 C.3    72  UNL72       0.0330
    429 H          -0.2062   15.3915   10.5610 H      72  UNL72       0.0521
    430 H          -1.6045   14.6602    9.7137 H      72  UNL72       0.0521
    431 H          -0.2545   15.3550    8.7789 H      72  UNL72       0.0521
    432 H          -0.1241   13.1021   10.5080 H      72  UNL72       0.2090
    433 O          -0.9007   13.5309   13.9427 O.3    73  UNL73      -0.3982
    434 C          -1.5568   14.7855   13.9427 C.3    73  UNL73       0.0330
    435 H          -2.4075   14.7529   14.6279 H      73  UNL73       0.0521
    436 H          -1.8985   15.0189   12.9314 H      73  UNL73       0.0521
    437 H          -0.8542   15.5538   14.2739 H      73  UNL73       0.0521
    438 H          -1.5485   12.8698   13.6447 H      73  UNL73       0.2090
    439 O          -0.4021   15.8709   16.0628 O.3    74  UNL74      -0.3982
    440 C          -1.8179   15.8709   16.0628 C.3    74  UNL74       0.0330
    441 H          -2.1832   16.8801   16.2688 H      74  UNL74       0.0521
    442 H          -2.1831   15.1773   16.8240 H      74  UNL74       0.0521
    443 H          -2.1732   15.5506   15.0806 H      74  UNL74       0.0521
    444 H          -0.1164   16.1591   16.9465 H      74  UNL74       0.2090
    445 O           0.4981   13.8203   18.2379 O.3    75  UNL75      -0.3982
    446 C          -0.7743   13.8203   18.8588 C.3    75  UNL75       0.0330
    447 H          -0.8021   13.0513   19.6348 H      75  UNL75       0.0521
    448 H          -1.5460   13.6256   18.1102 H      75  UNL75       0.0521
    449 H          -0.9484   14.7989   19.3123 H      75  UNL75       0.0521
    450 H           0.6242   12.9399   17.8448 H      75  UNL75       0.2090
    451 O           0.7442   14.5528   21.0821 O.3    76  UNL76      -0.3982
    452 C          -0.6716   14.5528   21.0821 C.3    76  UNL76       0.0330
    453 H          -1.0369   13.7497   20.4372 H      76  UNL76       0.0521
    454 H          -1.0368   15.5179   20.7227 H      76  UNL76       0.0521
    455 H          -1.0269   14.3882   22.1021 H      76  UNL76       0.0521
    456 H           1.0299   14.7009   20.1645 H      76  UNL76       0.2090
    457 O          -0.4142   14.5885   24.4373 O.3    77  UNL77      -0.3982
    458 C          -1.8300   14.5885   24.4373 C.3    77  UNL77       0.0330
    459 H          -2.1953   13.5969   24.7159 H      77  UNL77       0.0521
    460 H          -2.1952   14.8570   23.4431 H      77  UNL77       0.0521
    461 H          -2.1853   15.3227   25.1641 H      77  UNL77       0.0521
    462 H          -0.1285   13.9280   23.7834 H      77  UNL77       0.2090
    463 O           0.7926   17.0962   -0.8537 O.3    78  UNL78      -0.3982
    464 C          -0.6232   17.0962   -0.8537 C.3    78  UNL78       0.0330
    465 H          -0.9885   16.3272   -0.1685 H      78  UNL78       0.0521
    466 H          -0.9884   16.9015   -1.8650 H      78  UNL78       0.0521
    467 H          -0.9785   18.0748   -0.5225 H      78  UNL78       0.0521
    468 H           1.0783   16.2158   -1.1517 H      78  UNL78       0.2090
    469 O           0.0412   16.5479    1.3594 O.3    79  UNL79      -0.3982
    470 C          -0.6148   17.1220    2.4750 C.3    79  UNL79       0.0330
    471 H           0.1252   17.5665    3.1451 H      79  UNL79       0.0521
    472 H          -1.1821   16.3508    3.0017 H      79  UNL79       0.0521
    473 H          -1.2986   17.8985    2.1242 H      79  UNL79       0.0521
    474 H           0.6406   15.8630    1.7017 H      79  UNL79       0.2090
    475 O          -0.6221   16.8372    4.7056 O.3    80  UNL80      -0.3982
    476 C          -2.0379   16.8372    4.7056 C.3    80  UNL80       0.0330
    477 H          -2.4032   15.8868    4.3087 H      80  UNL80       0.0521
    478 H          -2.4031   17.6648    4.0925 H      80  UNL80       0.0521
    479 H          -2.3932   16.9620    5.7311 H      80  UNL80       0.0521
    480 H          -0.3364   16.7250    3.7829 H      80  UNL80       0.2090
    481 O          -0.9684   14.6320    7.9076 O.3    81  UNL81      -0.3982
    482 C          -0.1211   14.6320    6.7733 C.3    81  UNL81       0.0330
    483 H          -0.4514   13.8630    6.0706 H      81  UNL81       0.0521
    484 H           0.9077   14.4373    7.0860 H      81  UNL81       0.0521
    485 H          -0.1738   15.6106    6.2905 H      81  UNL81       0.0521
    486 H          -0.9006   13.7516    8.3148 H      81  UNL81       0.2090
    487 O           0.7684   17.1387    9.3382 O.3    82  UNL82      -0.3982
    488 C          -0.6474   17.1387    9.3382 C.3    82  UNL82       0.0330
    489 H          -1.0127   16.4991   10.1455 H      82  UNL82       0.0521
    490 H          -1.0126   16.7729    8.3754 H      82  UNL82       0.0521
    491 H          -1.0027   18.1597    9.4960 H      82  UNL82       0.0521
    492 H           1.0541   16.2202    9.1961 H      82  UNL82       0.2090
    493 O          -0.3284   16.5476   11.6105 O.3    83  UNL83      -0.3982
    494 C          -1.7442   16.5476   11.6105 C.3    83  UNL83       0.0330
    495 H          -2.1095   17.3963   11.0269 H      83  UNL83       0.0521
    496 H          -2.1094   16.6143   12.6382 H      83  UNL83       0.0521
    497 H          -2.0995   15.6181   11.1595 H      83  UNL83       0.0521
    498 H          -0.0427   17.3838   12.0163 H      83  UNL83       0.2090
    499 O          -0.9684   14.7178   14.9213 O.3    84  UNL84      -0.3982
    500 C          -0.1211   14.7178   13.7870 C.3    84  UNL84       0.0330
    501 H          -0.4514   13.9488   13.0843 H      84  UNL84       0.0521
    502 H           0.9077   14.5231   14.0997 H      84  UNL84       0.0521
    503 H          -0.1738   15.6964   13.3042 H      84  UNL84       0.0521
    504 H          -0.9006   13.8374   15.3285 H      84  UNL84       0.2090
    505 O           0.6716   17.1325   16.3774 O.3    85  UNL85      -0.3982
    506 C          -0.7442   17.1325   16.3774 C.3    85  UNL85       0.0330
    507 H          -1.1095   16.3635   17.0626 H      85  UNL85       0.0521
    508 H          -1.1094   16.9378   15.3661 H      85  UNL85       0.0521
    509 H          -1.0995   18.1111   16.7086 H      85  UNL85       0.0521
    510 H           0.9573   16.2521   16.0794 H      85  UNL85       0.2090
    511 O           0.7079   16.6561   18.5802 O.3    86  UNL86      -0.3982
    512 C          -0.7079   16.6561   18.5802 C.3    86  UNL86       0.0330
    513 H          -1.0732   17.0264   17.6191 H      86  UNL86       0.0521
    514 H          -1.0731   17.2920   19.3903 H      86  UNL86       0.0521
    515 H          -1.0632   15.6344   18.7334 H      86  UNL86       0.0521
    516 H           0.9936   17.5753   18.4423 H      86  UNL86       0.2090
    517 O          -0.1821   17.8053   21.1599 O.3    87  UNL87      -0.3982
    518 C          -1.5979   17.8053   21.1599 C.3    87  UNL87       0.0330
    519 H          -1.9632   17.5373   20.1654 H      87  UNL87       0.0521
    520 H          -1.9631   18.7966   21.4389 H      87  UNL87       0.0521
    521 H          -1.9532   17.0707   21.8863 H      87  UNL87       0.0521
    522 H           0.1036   18.4662   20.5063 H      87  UNL87       0.2090
    523 O           0.7079   15.1842   23.3097 O.3    88  UNL88      -0.3982
    524 C          -0.7079   15.1842   23.3097 C.3    88  UNL88       0.0330
    525 H          -1.0732   15.4350   24.3086 H      88  UNL88       0.0521
    526 H          -1.0731   14.1978   23.0136 H      88  UNL88       0.0521
    527 H          -1.0632   15.9311   22.5959 H      88  UNL88       0.0521
    528 H           0.9936   14.5121   23.9518 H      88  UNL88       0.2090
    529 O          -0.2921   20.4832   -1.0000 O.3    89  UNL89      -0.3982
    530 C          -1.7079   20.4832   -1.0000 C.3    89  UNL89       0.0330
    531 H          -2.0732   19.7142   -0.3148 H      89  UNL89       0.0521
    532 H          -2.0731   20.2885   -2.0113 H      89  UNL89       0.0521
    533 H          -2.0632   21.4618   -0.6688 H      89  UNL89       0.0521
    534 H          -0.0064   19.6028   -1.2980 H      89  UNL89       0.2090
    535 O          -0.3647   20.2740    2.3754 O.3    90  UNL90      -0.3982
    536 C          -1.7805   20.2740    2.3754 C.3    90  UNL90       0.0330
    537 H          -2.1458   20.1853    1.3493 H      90  UNL90       0.0521
    538 H          -2.1457   21.2007    2.8247 H      90  UNL90       0.0521
    539 H          -2.1358   19.4230    2.9612 H      90  UNL90       0.0521
    540 H          -0.0790   21.0396    1.8484 H      90  UNL90       0.2090
    541 O          -0.9007   19.3291    4.7847 O.3    91  UNL91      -0.3982
    542 C          -1.5568   20.5837    4.7847 C.3    91  UNL91       0.0330
    543 H          -2.4075   20.5511    5.4699 H      91  UNL91       0.0521
    544 H          -1.8985   20.8171    3.7734 H      91  UNL91       0.0521
    545 H          -0.8542   21.3520    5.1159 H      91  UNL91       0.0521
    546 H          -1.5485   18.6680    4.4867 H      91  UNL91       0.2090
    547 O           0.3917   16.8778    6.3188 O.3    92  UNL92      -0.3982
    548 C          -0.3995   18.0094    6.0057 C.3    92  UNL92       0.0330
    549 H          -1.4528   17.7201    5.9701 H      92  UNL92       0.0521
    550 H          -0.0894   18.4160    5.0401 H      92  UNL92       0.0521
    551 H          -0.2581   18.7670    6.7800 H      92  UNL92       0.0521
    552 H           0.2455   16.2233    5.6146 H      92  UNL92       0.2090
    553 O          -0.6221   20.4333    7.2423 O.3    93  UNL93      -0.3982
    554 C          -2.0379   20.4333    7.2423 C.3    93  UNL93       0.0330
    555 H          -2.4032   20.7183    8.2320 H      93  UNL93       0.0521
    556 H          -2.4031   19.4373    6.9803 H      93  UNL93       0.0521
    557 H          -2.3932   21.1553    6.5033 H      93  UNL93       0.0521
    558 H          -0.3364   19.7837    7.9071 H      93  UNL93       0.2090
    559 O           0.6111   18.4732   11.7258 O.3    94  UNL94      -0.3982
    560 C          -0.8047   18.4732   11.7258 C.3    94  UNL94       0.0330
    561 H          -1.1700   17.7042   12.4110 H      94  UNL94       0.0521
    562 H          -1.1699   18.2785   10.7145 H      94  UNL94       0.0521
    563 H          -1.1600   19.4518   12.0570 H      94  UNL94       0.0521
    564 H           0.8968   17.5928   11.4278 H      94  UNL94       0.2090
    565 O          -0.6221   19.8835   13.1849 O.3    95  UNL95      -0.3982
    566 C          -2.0379   19.8835   13.1849 C.3    95  UNL95       0.0330
    567 H          -2.4032   19.7948   12.1588 H      95  UNL95       0.0521
    568 H          -2.4031   20.8102   13.6342 H      95  UNL95       0.0521
    569 H          -2.3932   19.0325   13.7707 H      95  UNL95       0.0521
    570 H          -0.3364   20.6491   12.6579 H      95  UNL95       0.2090
    571 O          -0.3405   20.5074   16.3653 O.3    96  UNL96      -0.3982
    572 C          -1.7563   20.5074   16.3653 C.3    96  UNL96       0.0330
    573 H          -2.1216   19.7384   17.0505 H      96  UNL96       0.0521
    574 H          -2.1215   20.3127   15.3540 H      96  UNL96       0.0521
    575 H          -2.1116   21.4860   16.6965 H      96  UNL96       0.0521
    576 H          -0.0548   19.6270   16.0673 H      96  UNL96       0.2090
    577 O           0.6831   19.3781   18.3816 O.3    97  UNL97      -0.3982
    578 C          -0.7048   19.4968   18.6349 C.3    97  UNL97       0.0330
    579 H          -0.8754   19.5600   19.7125 H      97  UNL97       0.0521
    580 H          -1.2267   18.6298   18.2228 H      97  UNL97       0.0521
    581 H          -1.0770   20.4052   18.1554 H      97  UNL97       0.0521
    582 H           0.9847   18.5637   18.8191 H      97  UNL97       0.2090
    583 O           0.7442   19.4236   21.0579 O.3    98  UNL98      -0.3982
    584 C          -0.6716   19.4236   21.0579 C.3    98  UNL98       0.0330
    585 H          -1.0369   18.6205   20.4130 H      98  UNL98       0.0521
    586 H          -1.0368   20.3887   20.6985 H      98  UNL98       0.0521
    587 H          -1.0269   19.2590   22.0779 H      98  UNL98       0.0521
    588 H           1.0299   19.5717   20.1403 H      98  UNL98       0.2090
    589 O          -0.3163   20.4832   24.3790 O.3    99  UNL99      -0.3982
    590 C          -1.7321   20.4832   24.3790 C.3    99  UNL99       0.0330
    591 H          -2.0974   19.7142   25.0642 H      99  UNL99       0.0521
    592 H          -2.0973   20.2885   23.3677 H      99  UNL99       0.0521
    593 H          -2.0874   21.4618   24.7102 H      99  UNL99       0.0521
    594 H          -0.0306   19.6028   24.0810 H      99  UNL99       0.2090
    595 O           1.5620   -0.1430   -0.2508 O.3   100  UNL100     -0.3982
    596 C           0.1462   -0.1430   -0.2508 C.3   100  UNL100      0.0330
    597 H          -0.2191    0.1078    0.7481 H     100  UNL100      0.0521
    598 H          -0.2190   -1.1294   -0.5469 H     100  UNL100      0.0521
    599 H          -0.2091    0.6039   -0.9646 H     100  UNL100      0.0521
    600 H           1.8477   -0.8151    0.3913 H     100  UNL100      0.2090
    601 O           0.9739   -0.5702    1.3692 O.3   101  UNL101     -0.3982
    602 C           0.6699    0.0112    2.6238 C.3   101  UNL101      0.0330
    603 H           0.1914   -0.7332    3.2651 H     101  UNL101      0.0521
    604 H           0.0037    0.8651    2.4789 H     101  UNL101      0.0521
    605 H           1.5969    0.3504    3.0922 H     101  UNL101      0.0521
    606 H           0.1327   -0.8614    0.9780 H     101  UNL101      0.2090
    607 O           1.3068    1.5138    4.4129 O.3   102  UNL102     -0.3982
    608 C          -0.1090    1.5138    4.4129 C.3   102  UNL102      0.0330
    609 H          -0.4743    1.7646    5.4118 H     102  UNL102      0.0521
    610 H          -0.4742    0.5274    4.1168 H     102  UNL102      0.0521
    611 H          -0.4643    2.2607    3.6991 H     102  UNL102      0.0521
    612 H           1.5925    0.8417    5.0550 H     102  UNL102      0.2090
    613 O           1.3685   -1.0121    4.7937 O.3   103  UNL103     -0.3982
    614 C           2.7663   -1.0121    5.0190 C.3   103  UNL103      0.0330
    615 H           3.2360   -1.7811    4.4006 H     103  UNL103      0.0521
    616 H           2.9659   -1.2068    6.0755 H     103  UNL103      0.0521
    617 H           3.1698   -0.0335    4.7485 H     103  UNL103      0.0521
    618 H           1.0391   -1.8925    5.0425 H     103  UNL103      0.2090
    619 O           1.7213   -1.2435    9.0994 O.3   104  UNL104     -0.3982
    620 C           2.9802   -0.7033    9.4569 C.3   104  UNL104      0.0330
    621 H           2.8455    0.0548   10.2325 H     104  UNL104      0.0521
    622 H           3.4505   -0.2593    8.5762 H     104  UNL104      0.0521
    623 H           3.6149   -1.5054    9.8409 H     104  UNL104      0.0521
    624 H           1.1805   -0.5089    8.7626 H     104  UNL104      0.2090
    625 O           0.5572    0.3145   12.6300 O.3   105  UNL105     -0.3982
    626 C           0.2532   -0.2669   11.3754 C.3   105  UNL105      0.0330
    627 H           0.5749   -1.3113   11.3692 H     105  UNL105      0.0521
    628 H           0.7626    0.2871   10.5831 H     105  UNL105      0.0521
    629 H          -0.8263   -0.2194   11.2140 H     105  UNL105      0.0521
    630 H           1.5211    0.2579   12.7451 H     105  UNL105      0.2090
    631 O          -0.6206    1.4785   13.8096 O.3   106  UNL106     -0.3982
    632 C          -2.0364    1.4785   13.8096 C.3   106  UNL106      0.0330
    633 H          -2.4017    2.4877   14.0156 H     106  UNL106      0.0521
    634 H          -2.4016    0.7848   14.5708 H     106  UNL106      0.0521
    635 H          -2.3917    1.1582   12.8274 H     106  UNL106      0.0521
    636 H          -0.3349    1.7667   14.6933 H     106  UNL106      0.2090
    637 O           2.6481   -1.7356   16.0702 O.3   107  UNL107     -0.3982
    638 C           1.8041   -1.1684   15.0850 C.3   107  UNL107      0.0330
    639 H           1.5852   -0.1299   15.3454 H     107  UNL107      0.0521
    640 H           0.8768   -1.7432   15.0237 H     107  UNL107      0.0521
    641 H           2.3142   -1.1999   14.1194 H     107  UNL107      0.0521
    642 H           2.1689   -1.6937   16.9153 H     107  UNL107      0.2090
    643 O           1.4120   -0.8973   19.0529 O.3   108  UNL108     -0.3982
    644 C           0.7032    0.1828   18.4738 C.3   108  UNL108      0.0330
    645 H           0.1909    0.7458   19.2579 H     108  UNL108      0.0521
    646 H          -0.0225   -0.2013   17.7528 H     108  UNL108      0.0521
    647 H           1.4111    0.8381   17.9610 H     108  UNL108      0.0521
    648 H           0.7581   -1.4610   19.5004 H     108  UNL108      0.2090
    649 O           2.7592   -1.0726   22.0542 O.3   109  UNL109     -0.3982
    650 C           2.1031   -1.0726   20.7996 C.3   109  UNL109      0.0330
    651 H           1.3266   -1.8416   20.7934 H     109  UNL109      0.0521
    652 H           2.8301   -1.2673   20.0073 H     109  UNL109      0.0521
    653 H           1.6450   -0.0940   20.6382 H     109  UNL109      0.0521
    654 H           3.1556   -1.9530   22.1693 H     109  UNL109      0.2090
    655 O           3.4894   -1.0242   24.4032 O.3   110  UNL110     -0.3982
    656 C           2.0736   -1.0242   24.4032 C.3   110  UNL110      0.0330
    657 H           1.7083   -1.7932   25.0884 H     110  UNL110      0.0521
    658 H           1.7084   -1.2189   23.3919 H     110  UNL110      0.0521
    659 H           1.7183   -0.0456   24.7344 H     110  UNL110      0.0521
    660 H           3.7751   -1.9046   24.1052 H     110  UNL110      0.2090
    661 O           1.7094    3.8166   -0.9791 O.3   111  UNL111     -0.3982
    662 C           0.2936    3.8166   -0.9791 C.3   111  UNL111      0.0330
    663 H          -0.0717    3.5486   -1.9736 H     111  UNL111      0.0521
    664 H          -0.0716    4.8079   -0.7001 H     111  UNL111      0.0521
    665 H          -0.0617    3.0820   -0.2527 H     111  UNL111      0.0521
    666 H           1.9951    4.4775   -1.6327 H     111  UNL111      0.2090
    667 O           0.5635    4.9826    2.4116 O.3   112  UNL112     -0.3982
    668 C          -0.0926    3.7280    2.4116 C.3   112  UNL112      0.0330
    669 H           0.4196    3.0479    3.0968 H     112  UNL112      0.0521
    670 H          -0.0892    3.3141    1.4003 H     112  UNL112      0.0521
    671 H          -1.1244    3.8666    2.7428 H     112  UNL112      0.0521
    672 H           1.4760    4.8278    2.1136 H     112  UNL112      0.2090
    673 O           2.9227    1.5042    4.6617 O.3   113  UNL113     -0.3982
    674 C           2.2666    2.7589    4.6617 C.3   113  UNL113      0.0330
    675 H           1.5334    2.7877    5.4716 H     113  UNL113      0.0521
    676 H           1.7698    2.9112    3.7005 H     113  UNL113      0.0521
    677 H           3.0073    3.5471    4.8155 H     113  UNL113      0.0521
    678 H           2.2406    0.8252    4.5234 H     113  UNL113      0.2090
    679 O           0.0182    3.0678    7.0137 O.3   114  UNL114     -0.3982
    680 C           0.8655    1.9336    7.0137 C.3   114  UNL114      0.0330
    681 H           1.7002    2.1011    7.6989 H     114  UNL114      0.0521
    682 H           1.2401    1.7575    6.0024 H     114  UNL114      0.0521
    683 H           0.2942    1.0633    7.3449 H     114  UNL114      0.0521
    684 H           0.5526    3.8236    6.7157 H     114  UNL114      0.2090
    685 O           1.6921    0.7654   10.0882 O.3   115  UNL115     -0.3982
    686 C           2.5394    0.7654    8.9539 C.3   115  UNL115      0.0330
    687 H           2.2091   -0.0036    8.2512 H     115  UNL115      0.0521
    688 H           3.5681    0.5707    9.2666 H     115  UNL115      0.0521
    689 H           2.4867    1.7440    8.4711 H     115  UNL115      0.0521
    690 H           1.7598   -0.1150   10.4954 H     115  UNL115      0.2090
    691 O           2.1499    1.6244   10.8617 O.3   116  UNL116     -0.3982
    692 C           2.5480    2.4204   11.9628 C.3   116  UNL116      0.0330
    693 H           2.1189    3.4207   11.8645 H     116  UNL116      0.0521
    694 H           3.6385    2.4816   11.9939 H     116  UNL116      0.0521
    695 H           2.1847    1.9595   12.8843 H     116  UNL116      0.0521
    696 H           2.4863    2.0582   10.0591 H     116  UNL116      0.2090
    697 O           3.4773    2.2548   14.1168 O.3   117  UNL117     -0.3982
    698 C           2.0615    2.2548   14.1168 C.3   117  UNL117      0.0330
    699 H           1.6962    1.4517   13.4719 H     117  UNL117      0.0521
    700 H           1.6963    3.2199   13.7574 H     117  UNL117      0.0521
    701 H           1.7062    2.0902   15.1368 H     117  UNL117      0.0521
    702 H           3.7630    2.4029   13.1992 H     117  UNL117      0.2090
    703 O           2.1247    2.6707   17.1728 O.3   118  UNL118     -0.3982
    704 C           2.6851    2.0304   16.0413 C.3   118  UNL118      0.0330
    705 H           3.6624    1.6167   16.3023 H     118  UNL118      0.0521
    706 H           2.7886    2.7519   15.2272 H     118  UNL118      0.0521
    707 H           2.0218    1.2214   15.7260 H     118  UNL118      0.0521
    708 H           2.7348    3.3831   17.4293 H     118  UNL118      0.2090
    709 O           0.8446    2.4354   17.7224 O.3   119  UNL119     -0.3982
    710 C           0.1885    2.4354   18.9770 C.3   119  UNL119      0.0330
    711 H           0.6265    1.6664   19.6183 H     119  UNL119      0.0521
    712 H          -0.8769    2.2407   18.8321 H     119  UNL119      0.0521
    713 H           0.3174    3.4140   19.4454 H     119  UNL119      0.0521
    714 H           0.7129    1.5550   17.3312 H     119  UNL119      0.2090
    715 O           1.7405    0.5575   21.7172 O.3   120  UNL120     -0.3982
    716 C           2.5878    0.5575   20.5829 C.3   120  UNL120      0.0330
    717 H           2.2575   -0.2115   19.8802 H     120  UNL120      0.0521
    718 H           3.6165    0.3628   20.8956 H     120  UNL120      0.0521
    719 H           2.5351    1.5361   20.1001 H     120  UNL120      0.0521
    720 H           1.8082   -0.3229   22.1244 H     120  UNL120      0.2090
    721 O           2.8983    2.6084   24.3471 O.3   121  UNL121     -0.3982
    722 C           2.1070    2.2954   23.2156 C.3   121  UNL121      0.0330
    723 H           1.9953    1.2111   23.1365 H     121  UNL121      0.0521
    724 H           2.5848    2.6897   22.3154 H     121  UNL121      0.0521
    725 H           1.1221    2.7533   23.3330 H     121  UNL121      0.0521
    726 H           3.7654    2.1889   24.2143 H     121  UNL121      0.2090
    727 O           3.0857    4.9071   -0.8537 O.3   122  UNL122     -0.3982
    728 C           1.6699    4.9071   -0.8537 C.3   122  UNL122      0.0330
    729 H           1.3046    4.1381   -0.1685 H     122  UNL122      0.0521
    730 H           1.3047    4.7124   -1.8650 H     122  UNL122      0.0521
    731 H           1.3146    5.8857   -0.5225 H     122  UNL122      0.0521
    732 H           3.3714    4.0267   -1.1517 H     122  UNL122      0.2090
    733 O           3.0880    4.5946    3.0919 O.3   123  UNL123     -0.3982
    734 C           2.4320    4.5946    1.8373 C.3   123  UNL123      0.0330
    735 H           2.0801    5.6038    1.6090 H     123  UNL123      0.0521
    736 H           1.5882    3.9009    1.8664 H     123  UNL123      0.0521
    737 H           3.1377    4.2743    1.0673 H     123  UNL123      0.0521
    738 H           2.4373    4.8828    3.7545 H     123  UNL123      0.2090
    739 O           3.4531    4.6412    4.8500 O.3   124  UNL124     -0.3982
    740 C           2.0373    4.6412    4.8500 C.3   124  UNL124      0.0330
    741 H           1.6720    3.6777    4.4861 H     124  UNL124      0.0521
    742 H           1.6721    5.4472    4.2089 H     124  UNL124      0.0521
    743 H           1.6820    4.8012    5.8707 H     124  UNL124      0.0521
    744 H           3.7388    4.4974    3.9318 H     124  UNL124      0.2090
    745 O           3.0759    3.8709    6.8724 O.3   125  UNL125     -0.3982
    746 C           2.2846    5.0004    7.1928 C.3   125  UNL125      0.0330
    747 H           1.2263    4.7399    7.1118 H     125  UNL125      0.0521
    748 H           2.5227    5.8189    6.5092 H     125  UNL125      0.0521
    749 H           2.5042    5.3088    8.2176 H     125  UNL125      0.0521
    750 H           2.8593    3.6205    5.9581 H     125  UNL125      0.2090
    751 O           1.4894    4.4922    9.3770 O.3   126  UNL126     -0.3982
    752 C           0.0736    4.4922    9.3770 C.3   126  UNL126      0.0330
    753 H          -0.2917    4.4035    8.3509 H     126  UNL126      0.0521
    754 H          -0.2916    5.4189    9.8263 H     126  UNL126      0.0521
    755 H          -0.2817    3.6412    9.9628 H     126  UNL126      0.0521
    756 H           1.7751    5.2578    8.8500 H     126  UNL126      0.2090
    757 O           2.7956    5.1445   12.5685 O.3   127  UNL127     -0.3982
    758 C           2.1395    4.5631   11.4567 C.3   127  UNL127      0.0330
    759 H           2.6517    3.6408   11.1715 H     127  UNL127      0.0521
    760 H           2.1429    5.2675   10.6213 H     127  UNL127      0.0521
    761 H           1.1077    4.3339   11.7329 H     127  UNL127      0.0521
    762 H           3.7081    5.3369   12.2932 H     127  UNL127      0.2090
    763 O           0.9172    4.8587   13.0587 O.3   128  UNL128     -0.3982
    764 C           0.2611    4.8587   14.3133 C.3   128  UNL128      0.0330
    765 H           0.6991    4.0897   14.9546 H     128  UNL128      0.0521
    766 H          -0.8043    4.6640   14.1684 H     128  UNL128      0.0521
    767 H           0.3900    5.8373   14.7817 H     128  UNL128      0.0521
    768 H           0.7855    3.9783   12.6675 H     128  UNL128      0.2090
    769 O           3.4894    4.6902   16.4789 O.3   129  UNL129     -0.3982
    770 C           2.0736    4.6902   16.4789 C.3   129  UNL129      0.0330
    771 H           1.7083    3.8871   15.8340 H     129  UNL129      0.0521
    772 H           1.7084    5.6553   16.1195 H     129  UNL129      0.0521
    773 H           1.7183    4.5256   17.4989 H     129  UNL129      0.0521
    774 H           3.7751    4.8383   15.5613 H     129  UNL129      0.2090
    775 O           3.0759    4.4228   17.8477 O.3   130  UNL130     -0.3982
    776 C           2.2846    4.6622   18.9970 C.3   130  UNL130      0.0330
    777 H           1.2263    4.6133   18.7287 H     130  UNL130      0.0521
    778 H           2.5227    5.6472   19.4056 H     130  UNL130      0.0521
    779 H           2.5042    3.8970   19.7453 H     130  UNL130      0.0521
    780 H           2.8593    5.1169   17.2021 H     130  UNL130      0.2090
    781 O           3.4773    2.9195   20.9258 O.3   131  UNL131     -0.3982
    782 C           2.0615    2.9195   20.9258 C.3   131  UNL131      0.0330
    783 H           1.6962    3.7682   20.3422 H     131  UNL131      0.0521
    784 H           1.6963    2.9862   21.9535 H     131  UNL131      0.0521
    785 H           1.7062    1.9900   20.4748 H     131  UNL131      0.0521
    786 H           3.7630    3.7557   21.3316 H     131  UNL131      0.2090
    787 O           2.7609    3.8666   22.8010 O.3   132  UNL132     -0.3982
    788 C           2.2628    5.0832   23.3266 C.3   132  UNL132      0.0330
    789 H           3.0264    5.5501   23.9537 H     132  UNL132      0.0521
    790 H           1.3635    4.8858   23.9152 H     132  UNL132      0.0521
    791 H           2.0145    5.7524   22.4995 H     132  UNL132      0.0521
    792 H           2.9722    3.2938   23.5578 H     132  UNL132      0.2090
    793 O           1.4531    7.0537   -1.1122 O.3   133  UNL133     -0.3982
    794 C           0.0373    7.0537   -1.1122 C.3   133  UNL133      0.0330
    795 H          -0.3280    6.7857   -2.1067 H     133  UNL133      0.0521
    796 H          -0.3279    8.0450   -0.8332 H     133  UNL133      0.0521
    797 H          -0.3180    6.3191   -0.3858 H     133  UNL133      0.0521
    798 H           1.7388    7.7146   -1.7658 H     133  UNL133      0.2090
    799 O           2.1091    7.0213    0.9594 O.3   134  UNL134     -0.3982
    800 C           2.7610    7.2607   -0.2744 C.3   134  UNL134      0.0330
    801 H           2.6472    8.3121   -0.5497 H     134  UNL134      0.0521
    802 H           2.3265    6.6217   -1.0470 H     134  UNL134      0.0521
    803 H           3.8228    7.0273   -0.1664 H     134  UNL134      0.0521
    804 H           1.1694    7.2369    0.8326 H     134  UNL134      0.2090
    805 O           3.0643    6.3708    2.8446 O.3   135  UNL135     -0.3982
    806 C           2.2731    7.5024    2.5315 C.3   135  UNL135      0.0330
    807 H           1.2198    7.2131    2.4959 H     135  UNL135      0.0521
    808 H           2.5831    7.9090    1.5659 H     135  UNL135      0.0521
    809 H           2.4145    8.2600    3.3058 H     135  UNL135      0.0521
    810 H           2.9181    5.7163    2.1404 H     135  UNL135      0.2090
    811 O           1.4773    6.9276    7.0875 O.3   136  UNL136     -0.3982
    812 C           0.0615    6.9276    7.0875 C.3   136  UNL136      0.0330
    813 H          -0.3038    6.8389    6.0614 H     136  UNL136      0.0521
    814 H          -0.3037    7.8543    7.5368 H     136  UNL136      0.0521
    815 H          -0.2938    6.0766    7.6733 H     136  UNL136      0.0521
    816 H           1.7630    7.6932    6.5605 H     136  UNL136      0.2090
    817 O           0.8294    7.1197    9.1444 O.3   137  UNL137     -0.3982
    818 C          -0.5864    7.1197    9.1444 C.3   137  UNL137      0.0330
    819 H          -0.9517    8.1212    9.3849 H     137  UNL137      0.0521
    820 H          -0.9516    6.4003    9.8813 H     137  UNL137      0.0521
    821 H          -0.9417    6.8334    8.1517 H     137  UNL137      0.0521
    822 H           1.1151    7.3773   10.0374 H     137  UNL137      0.2090
    823 O           3.4773    7.2842   11.5234 O.3   138  UNL138     -0.3982
    824 C           2.0615    7.2842   11.5234 C.3   138  UNL138      0.0330
    825 H           1.6962    7.5350   12.5223 H     138  UNL138      0.0521
    826 H           1.6963    6.2978   11.2273 H     138  UNL138      0.0521
    827 H           1.7062    8.0311   10.8096 H     138  UNL138      0.0521
    828 H           3.7630    6.6121   12.1655 H     138  UNL138      0.2090
    829 O           3.4894    5.2103   14.1289 O.3   139  UNL139     -0.3982
    830 C           2.0736    5.2103   14.1289 C.3   139  UNL139      0.0330
    831 H           1.7083    4.4072   13.4840 H     139  UNL139      0.0521
    832 H           1.7084    6.1754   13.7695 H     139  UNL139      0.0521
    833 H           1.7183    5.0457   15.1489 H     139  UNL139      0.0521
    834 H           3.7751    5.3584   13.2113 H     139  UNL139      0.2090
    835 O           2.7830    7.1147   15.2948 O.3   140  UNL140     -0.3982
    836 C           2.1270    7.1147   16.5494 C.3   140  UNL140      0.0330
    837 H           2.1403    8.1239   16.9686 H     140  UNL140      0.0521
    838 H           2.6323    6.4210   17.2258 H     140  UNL140      0.0521
    839 H           1.0919    6.7944   16.4092 H     140  UNL140      0.0521
    840 H           3.6985    7.4029   15.4511 H     140  UNL140      0.2090
    841 O           1.0144    7.3062   19.6316 O.3   141  UNL141     -0.3982
    842 C           0.3583    7.3062   18.3770 C.3   141  UNL141      0.0330
    843 H          -0.4182    6.5372   18.3708 H     141  UNL141      0.0521
    844 H           1.0853    7.1115   17.5847 H     141  UNL141      0.0521
    845 H          -0.0998    8.2848   18.2156 H     141  UNL141      0.0521
    846 H           1.4108    6.4258   19.7467 H     141  UNL141      0.2090
    847 O           3.4894    5.3788   21.0411 O.3   142  UNL142     -0.3982
    848 C           2.0736    5.3788   21.0411 C.3   142  UNL142      0.0330
    849 H           1.7083    4.6098   21.7263 H     142  UNL142      0.0521
    850 H           1.7084    5.1841   20.0298 H     142  UNL142      0.0521
    851 H           1.7183    6.3574   21.3723 H     142  UNL142      0.0521
    852 H           3.7751    4.4984   20.7431 H     142  UNL142      0.2090
    853 O           2.0601    8.1143   22.9395 O.3   143  UNL143     -0.3982
    854 C           2.6205    6.9828   23.5799 C.3   143  UNL143      0.0330
    855 H           3.2137    6.4125   22.8607 H     143  UNL143      0.0521
    856 H           1.8201    6.3585   23.9845 H     143  UNL143      0.0521
    857 H           3.2650    7.3189   24.3954 H     143  UNL143      0.0521
    858 H           1.4936    7.7847   22.2212 H     143  UNL143      0.2090
    859 O           1.3784    9.6898   -1.5576 O.3   144  UNL144     -0.3982
    860 C           2.7295    9.4051   -1.2446 C.3   144  UNL144      0.0330
    861 H           2.8319    9.2600   -0.1662 H     144  UNL144      0.0521
    862 H           3.3628   10.2327   -1.5734 H     144  UNL144      0.0521
    863 H           3.0294    8.4914   -1.7630 H     144  UNL144      0.0521
    864 H           1.1410   10.5050   -1.0837 H     144  UNL144      0.2090
    865 O           3.0275    9.5501    3.1766 O.3   145  UNL145     -0.3982
    866 C           2.3715    9.5501    1.9220 C.3   145  UNL145      0.0330
    867 H           2.0196   10.5593    1.6937 H     145  UNL145      0.0521
    868 H           1.5277    8.8564    1.9510 H     145  UNL145      0.0521
    869 H           3.0772    9.2298    1.1520 H     145  UNL145      0.0521
    870 H           2.3768    9.8383    3.8392 H     145  UNL145      0.2090
    871 O           1.4894    9.5451    4.5533 O.3   146  UNL146     -0.3982
    872 C           0.0736    9.5451    4.5533 C.3   146  UNL146      0.0330
    873 H          -0.2917   10.1953    3.7545 H     146  UNL146      0.0521
    874 H          -0.2916    9.8982    5.5208 H     146  UNL146      0.0521
    875 H          -0.2817    8.5262    4.3821 H     146  UNL146      0.0521
    876 H           1.7751   10.4617    4.7075 H     146  UNL146      0.2090
    877 O           1.8373    8.3910    7.3323 O.3   147  UNL147     -0.3982
    878 C           2.6846    7.3858    6.8067 C.3   147  UNL147      0.0330
    879 H           2.3543    6.4068    7.1626 H     147  UNL147      0.0521
    880 H           3.7133    7.5727    7.1241 H     147  UNL147      0.0521
    881 H           2.6319    7.4114    5.7158 H     147  UNL147      0.0521
    882 H           1.9050    8.3439    8.3012 H     147  UNL147      0.2090
    883 O           1.1103    9.6437    7.5365 O.3   148  UNL148     -0.3982
    884 C           2.3693    9.6437    8.1843 C.3   148  UNL148      0.0330
    885 H           3.0076    8.8747    7.7422 H     148  UNL148      0.0521
    886 H           2.2313    9.4490    9.2506 H     148  UNL148      0.0521
    887 H           2.8367   10.6223    8.0524 H     148  UNL148      0.0521
    888 H           0.7200    8.7633    7.6708 H     148  UNL148      0.2090
    889 O           1.5499    9.8505   11.6774 O.3   149  UNL149     -0.3982
    890 C           0.1341    9.8505   11.6774 C.3   149  UNL149      0.0330
    891 H          -0.2312    9.0815   12.3626 H     149  UNL149      0.0521
    892 H          -0.2311    9.6558   10.6661 H     149  UNL149      0.0521
    893 H          -0.2212   10.8291   12.0086 H     149  UNL149      0.0521
    894 H           1.8356    8.9701   11.3794 H     149  UNL149      0.2090
    895 O          -0.6438    9.9019   13.6222 O.3   150  UNL150     -0.3982
    896 C           0.6396    9.3763   13.9073 C.3   150  UNL150      0.0330
    897 H           0.6134    8.8467   14.8629 H     150  UNL150      0.0521
    898 H           1.3666   10.1909   13.9498 H     150  UNL150      0.0521
    899 H           0.9222    8.6795   13.1147 H     150  UNL150      0.0521
    900 H          -0.8673   10.5162   14.3421 H     150  UNL150      0.2090
    901 O           2.8695    8.6209   16.1717 O.3   151  UNL151     -0.3982
    902 C           2.2134    9.8755   16.1717 C.3   151  UNL151      0.0330
    903 H           2.9384   10.6668   16.3777 H     151  UNL151      0.0521
    904 H           1.4295    9.8777   16.9329 H     151  UNL151      0.0521
    905 H           1.7649   10.0419   15.1895 H     151  UNL151      0.0521
    906 H           3.2572    8.5012   17.0554 H     151  UNL151      0.2090
    907 O           1.8794   10.0011   19.4986 O.3   152  UNL152     -0.3982
    908 C           2.4398    9.3608   18.3671 C.3   152  UNL152      0.0330
    909 H           3.4171    8.9471   18.6281 H     152  UNL152      0.0521
    910 H           2.5433   10.0823   17.5530 H     152  UNL152      0.0521
    911 H           1.7765    8.5518   18.0518 H     152  UNL152      0.0521
    912 H           2.4895   10.7135   19.7551 H     152  UNL152      0.2090
    913 O           1.3343    9.7441   21.1547 O.3   153  UNL153     -0.3982
    914 C           2.7390    9.5670   21.1547 C.3   153  UNL153      0.0330
    915 H           3.2019   10.3180   20.5098 H     153  UNL153      0.0521
    916 H           2.9806    8.5638   20.7953 H     153  UNL153      0.0521
    917 H           3.1121    9.6858   22.1747 H     153  UNL153      0.0521
    918 H           1.0324    9.6328   20.2371 H     153  UNL153      0.2090
    919 O           0.4894    9.7430   24.4373 O.3   154  UNL154     -0.3982
    920 C          -0.9264    9.7430   24.4373 C.3   154  UNL154      0.0330
    921 H          -1.2917    8.7514   24.7159 H     154  UNL154      0.0521
    922 H          -1.2916   10.0115   23.4431 H     154  UNL154      0.0521
    923 H          -1.2817   10.4772   25.1641 H     154  UNL154      0.0521
    924 H           0.7751    9.0825   23.7834 H     154  UNL154      0.2090
    925 O           1.5873   12.2518   -0.2629 O.3   155  UNL155     -0.3982
    926 C           0.1715   12.2518   -0.2629 C.3   155  UNL155      0.0330
    927 H          -0.1938   12.5026    0.7360 H     155  UNL155      0.0521
    928 H          -0.1937   11.2654   -0.5590 H     155  UNL155      0.0521
    929 H          -0.1838   12.9987   -0.9767 H     155  UNL155      0.0521
    930 H           1.8730   11.5797    0.3792 H     155  UNL155      0.2090
    931 O           1.4894   12.2536    2.3453 O.3   156  UNL156     -0.3982
    932 C           0.0736   12.2536    2.3453 C.3   156  UNL156      0.0330
    933 H          -0.2917   11.3973    2.9177 H     156  UNL156      0.0521
    934 H          -0.2916   12.2004    1.3168 H     156  UNL156      0.0521
    935 H          -0.2817   13.1771    2.8084 H     156  UNL156      0.0521
    936 H           1.7751   11.4228    1.9285 H     156  UNL156      0.2090
    937 O           3.3673    6.3970    4.5669 O.3   157  UNL157     -0.3982
    938 C           1.9515    6.3970    4.5669 C.3   157  UNL157      0.0330
    939 H           1.5862    5.6280    5.2521 H     157  UNL157      0.0521
    940 H           1.5863    6.2023    3.5556 H     157  UNL157      0.0521
    941 H           1.5962    7.3756    4.8981 H     157  UNL157      0.0521
    942 H           3.6530    5.5166    4.2689 H     157  UNL157      0.2090
    943 O           3.4894   10.2155    6.7508 O.3   158  UNL158     -0.3982
    944 C           2.0736   10.2155    6.7508 C.3   158  UNL158      0.0330
    945 H           1.7083   10.4663    7.7497 H     158  UNL158      0.0521
    946 H           1.7084    9.2291    6.4547 H     158  UNL158      0.0521
    947 H           1.7183   10.9624    6.0370 H     158  UNL158      0.0521
    948 H           3.7751    9.5434    7.3929 H     158  UNL158      0.2090
    949 O           1.4773   12.2652    9.1049 O.3   159  UNL159     -0.3982
    950 C           0.0615   12.2652    9.1049 C.3   159  UNL159      0.0330
    951 H          -0.3038   12.3757   10.1289 H     159  UNL159      0.0521
    952 H          -0.3037   11.3292    8.6754 H     159  UNL159      0.0521
    953 H          -0.2938   13.1036    8.5012 H     159  UNL159      0.0521
    954 H           1.7630   11.5110    9.6480 H     159  UNL159      0.2090
    955 O           3.0879   11.7290   10.8339 O.3   160  UNL160     -0.3982
    956 C           2.2967   11.9684   11.9833 C.3   160  UNL160      0.0330
    957 H           1.2384   11.9195   11.7150 H     160  UNL160      0.0521
    958 H           2.5348   12.9534   12.3919 H     160  UNL160      0.0521
    959 H           2.5163   11.2032   12.7316 H     160  UNL160      0.0521
    960 H           2.8714   12.4231   10.1884 H     160  UNL160      0.2090
    961 O           3.4894   12.1410   14.0857 O.3   161  UNL161     -0.3982
    962 C           2.0736   12.1410   14.0857 C.3   161  UNL161      0.0330
    963 H           1.7083   11.1494   14.3643 H     161  UNL161      0.0521
    964 H           1.7084   12.4095   13.0915 H     161  UNL161      0.0521
    965 H           1.7183   12.8752   14.8125 H     161  UNL161      0.0521
    966 H           3.7751   11.4805   13.4318 H     161  UNL161      0.2090
    967 O           1.4773   12.2859   16.4016 O.3   162  UNL162     -0.3982
    968 C           0.0615   12.2859   16.4016 C.3   162  UNL162      0.0330
    969 H          -0.3038   11.5169   17.0868 H     162  UNL162      0.0521
    970 H          -0.3037   12.0912   15.3903 H     162  UNL162      0.0521
    971 H          -0.2938   13.2645   16.7328 H     162  UNL162      0.0521
    972 H           1.7630   11.4055   16.1036 H     162  UNL162      0.2090
    973 O           3.4894   12.1231   18.5318 O.3   163  UNL163     -0.3982
    974 C           2.0736   12.1231   18.5318 C.3   163  UNL163      0.0330
    975 H           1.7083   12.5421   19.4727 H     163  UNL163      0.0521
    976 H           1.7084   11.1005   18.4099 H     163  UNL163      0.0521
    977 H           1.7183   12.7361   17.7002 H     163  UNL163      0.0521
    978 H           3.7751   11.5716   19.2800 H     163  UNL163      0.2090
    979 O           0.7285   12.0442   22.0287 O.3   164  UNL164     -0.3982
    980 C           0.0725   12.0442   20.7741 C.3   164  UNL164      0.0330
    981 H           0.2257   11.0807   20.2817 H     164  UNL164      0.0521
    982 H           0.4714   12.8502   20.1533 H     164  UNL164      0.0521
    983 H          -0.9967   12.2042   20.9322 H     164  UNL164      0.0521
    984 H           1.6746   11.9004   21.8564 H     164  UNL164      0.2090
    985 O           3.0391    9.1329   24.4153 O.3   165  UNL165     -0.3982
    986 C           2.3831   10.3875   24.4153 C.3   165  UNL165      0.0330
    987 H           1.5324   10.3549   25.1005 H     165  UNL165      0.0521
    988 H           2.0413   10.6209   23.4040 H     165  UNL165      0.0521
    989 H           3.0857   11.1558   24.7465 H     165  UNL165      0.0521
    990 H           2.3914    8.4718   24.1173 H     165  UNL165      0.2090
    991 O          -1.4460   15.1359   -1.0726 O.3   166  UNL166     -0.3982
    992 C          -0.5987   14.0017   -1.0726 C.3   166  UNL166      0.0330
    993 H           0.2360   14.1692   -0.3874 H     166  UNL166      0.0521
    994 H          -0.2241   13.8256   -2.0839 H     166  UNL166      0.0521
    995 H          -1.1700   13.1314   -0.7414 H     166  UNL166      0.0521
    996 H          -0.9116   15.8917   -1.3706 H     166  UNL166      0.2090
    997 O           2.2231   13.2388    3.1834 O.3   167  UNL167     -0.3982
    998 C           2.6158   12.4880    2.0491 C.3   167  UNL167      0.0330
    999 H           1.7812   12.4244    1.3464 H     167  UNL167      0.0521
   1000 H           2.9199   11.4861    2.3618 H     167  UNL167      0.0521
   1001 H           3.4585   12.9881    1.5663 H     167  UNL167      0.0521
   1002 H           1.4744   12.7708    3.5906 H     167  UNL167      0.2090
   1003 O           3.3805   14.5904    2.4734 O.3   168  UNL168     -0.3982
   1004 C           1.9647   14.5904    2.4734 C.3   168  UNL168      0.0330
   1005 H           1.5994   14.8412    3.4723 H     168  UNL168      0.0521
   1006 H           1.5995   13.6040    2.1773 H     168  UNL168      0.0521
   1007 H           1.6094   15.3373    1.7596 H     168  UNL168      0.0521
   1008 H           3.6662   13.9183    3.1155 H     168  UNL168      0.2090
   1009 O           3.1313   11.8232    5.6480 O.3   169  UNL169     -0.3982
   1010 C           2.1620   12.5082    4.8761 C.3   169  UNL169      0.0330
   1011 H           2.6171   13.3890    4.4163 H     169  UNL169      0.0521
   1012 H           1.3295   12.8077    5.5174 H     169  UNL169      0.0521
   1013 H           1.7943   11.8403    4.0936 H     169  UNL169      0.0521
   1014 H           3.4388   12.4405    6.3335 H     169  UNL169      0.2090
   1015 O           1.7405   13.0161   10.1366 O.3   170  UNL170     -0.3982
   1016 C           2.5878   13.0161    9.0023 C.3   170  UNL170      0.0330
   1017 H           2.2575   12.2471    8.2996 H     170  UNL170      0.0521
   1018 H           3.6165   12.8214    9.3150 H     170  UNL170      0.0521
   1019 H           2.5351   13.9947    8.5195 H     170  UNL170      0.0521
   1020 H           1.8082   12.1357   10.5438 H     170  UNL170      0.2090
   1021 O           2.8285   14.5643   12.6570 O.3   171  UNL171     -0.3982
   1022 C           2.1724   14.5643   11.4024 C.3   171  UNL171      0.0330
   1023 H           1.7563   13.5727   11.2077 H     171  UNL171      0.0521
   1024 H           2.8843   14.8328   10.6181 H     171  UNL171      0.0521
   1025 H           1.3637   15.2985   11.4243 H     171  UNL171      0.0521
   1026 H           3.5403   13.9038   12.6072 H     171  UNL171      0.2090
   1027 O           3.4894   14.6003   14.0274 O.3   172  UNL172     -0.3982
   1028 C           2.0736   14.6003   14.0274 C.3   172  UNL172      0.0330
   1029 H           1.7083   13.8313   14.7126 H     172  UNL172      0.0521
   1030 H           1.7084   14.4056   13.0161 H     172  UNL172      0.0521
   1031 H           1.7183   15.5789   14.3586 H     172  UNL172      0.0521
   1032 H           3.7751   13.7199   13.7294 H     172  UNL172      0.2090
   1033 O           0.6013   14.6124   15.2622 O.3   173  UNL173     -0.3982
   1034 C           0.3668   14.6124   16.6585 C.3   173  UNL173      0.0330
   1035 H           0.9821   13.8434   17.1322 H     173  UNL173      0.0521
   1036 H          -0.6910   14.4177   16.8512 H     173  UNL173      0.0521
   1037 H           0.6346   15.5910   17.0637 H     173  UNL173      0.0521
   1038 H           0.3547   13.7320   14.9311 H     173  UNL173      0.2090
   1039 O           2.9167   15.1981   19.1882 O.3   174  UNL174     -0.3982
   1040 C           2.1357   14.1478   18.6483 C.3   174  UNL174      0.0330
   1041 H           2.7629   13.2652   18.5003 H     174  UNL174      0.0521
   1042 H           1.7047   14.4656   17.6958 H     174  UNL174      0.0521
   1043 H           1.3314   13.9075   19.3475 H     174  UNL174      0.0521
   1044 H           3.6215   15.3891   18.5462 H     174  UNL174      0.2090
   1045 O           2.1305   15.0813   20.1229 O.3   175  UNL175     -0.3982
   1046 C           2.4352   14.1277   21.1240 C.3   175  UNL175      0.0330
   1047 H           1.7939   14.2930   21.9933 H     175  UNL175      0.0521
   1048 H           3.4857   14.2212   21.4098 H     175  UNL175      0.0521
   1049 H           2.2558   13.1259   20.7268 H     175  UNL175      0.0521
   1050 H           2.2993   15.9598   20.5043 H     175  UNL175      0.2090
   1051 O           2.7133   13.0255   24.1941 O.3   176  UNL176     -0.3982
   1052 C           2.2003   12.1705   23.1889 C.3   176  UNL176      0.0330
   1053 H           2.9912   11.5022   22.8393 H     176  UNL176      0.0521
   1054 H           1.8214   12.7702   22.3578 H     176  UNL176      0.0521
   1055 H           1.3846   11.5776   23.6091 H     176  UNL176      0.0521
   1056 H           3.4348   13.5385   23.7919 H     176  UNL176      0.2090
   1057 O           1.8831   14.5069    0.8151 O.3   177  UNL177     -0.3982
   1058 C           2.7304   15.0325   -0.1901 C.3   177  UNL177      0.0330
   1059 H           2.3329   15.9886   -0.5397 H     177  UNL177      0.0521
   1060 H           2.7929   14.3259   -1.0212 H     177  UNL177      0.0521
   1061 H           3.7270   15.1865    0.2301 H     177  UNL177      0.0521
   1062 H           1.0067   14.3809    0.4129 H     177  UNL177      0.2090
   1063 O           3.0759   16.8046    3.1333 O.3   178  UNL178     -0.3982
   1064 C           2.2846   17.1176    2.0018 C.3   178  UNL178      0.0330
   1065 H           1.2263   17.0383    2.2628 H     178  UNL178      0.0521
   1066 H           2.5227   16.4286    1.1877 H     178  UNL178      0.0521
   1067 H           2.5042   18.1403    1.6866 H     178  UNL178      0.0521
   1068 H           2.8593   15.8919    3.3898 H     178  UNL178      0.2090
   1069 O           3.4894   16.8563    4.4822 O.3   179  UNL179     -0.3982
   1070 C           2.0736   16.8563    4.4822 C.3   179  UNL179      0.0330
   1071 H           1.7083   17.8655    4.6882 H     179  UNL179      0.0521
   1072 H           1.7084   16.1626    5.2434 H     179  UNL179      0.0521
   1073 H           1.7183   16.5360    3.5000 H     179  UNL179      0.0521
   1074 H           3.7751   17.1445    5.3659 H     179  UNL179      0.2090
   1075 O           2.6778   17.2323    7.9680 O.3   180  UNL180     -0.3982
   1076 C           2.1796   16.7067    6.7514 C.3   180  UNL180      0.0330
   1077 H           2.9794   16.1771    6.2276 H     180  UNL180      0.0521
   1078 H           1.7997   17.5213    6.1300 H     180  UNL180      0.0521
   1079 H           1.3674   16.0099    6.9715 H     180  UNL180      0.0521
   1080 H           3.3965   17.8466    7.7408 H     180  UNL180      0.2090
   1081 O           3.4894   14.9257    9.3516 O.3   181  UNL181     -0.3982
   1082 C           2.0736   14.9257    9.3516 C.3   181  UNL181      0.0330
   1083 H           1.7083   14.1567   10.0368 H     181  UNL181      0.0521
   1084 H           1.7084   14.7310    8.3403 H     181  UNL181      0.0521
   1085 H           1.7183   15.9043    9.6828 H     181  UNL181      0.0521
   1086 H           3.7751   14.0453    9.0536 H     181  UNL181      0.2090
   1087 O           3.4894   17.0118   11.7478 O.3   182  UNL182     -0.3982
   1088 C           2.0736   17.0118   11.7478 C.3   182  UNL182      0.0330
   1089 H           1.7083   16.0202   12.0264 H     182  UNL182      0.0521
   1090 H           1.7084   17.2803   10.7536 H     182  UNL182      0.0521
   1091 H           1.7183   17.7460   12.4746 H     182  UNL182      0.0521
   1092 H           3.7751   16.3513   11.0939 H     182  UNL182      0.2090
   1093 O           2.9546   17.0478   13.0466 O.3   183  UNL183     -0.3982
   1094 C           2.2985   17.0478   14.3012 C.3   183  UNL183      0.0330
   1095 H           2.7365   16.2788   14.9425 H     183  UNL183      0.0521
   1096 H           1.2331   16.8531   14.1563 H     183  UNL183      0.0521
   1097 H           2.4274   18.0264   14.7696 H     183  UNL183      0.0521
   1098 H           2.8229   16.1674   12.6554 H     183  UNL183      0.2090
   1099 O           3.4894   17.0478   16.3653 O.3   184  UNL184     -0.3982
   1100 C           2.0736   17.0478   16.3653 C.3   184  UNL184      0.0330
   1101 H           1.7083   16.2788   17.0505 H     184  UNL184      0.0521
   1102 H           1.7084   16.8531   15.3540 H     184  UNL184      0.0521
   1103 H           1.7183   18.0264   16.6965 H     184  UNL184      0.0521
   1104 H           3.7751   16.1674   16.0673 H     184  UNL184      0.2090
   1105 O           1.4773   17.1567   18.8121 O.3   185  UNL185     -0.3982
   1106 C           0.0615   17.1567   18.8121 C.3   185  UNL185      0.0330
   1107 H          -0.3038   16.3877   19.4973 H     185  UNL185      0.0521
   1108 H          -0.3037   16.9620   17.8008 H     185  UNL185      0.0521
   1109 H          -0.2938   18.1353   19.1433 H     185  UNL185      0.0521
   1110 H           1.7630   16.2763   18.5141 H     185  UNL185      0.2090
   1111 O           1.3572   16.6475   20.8871 O.3   186  UNL186     -0.3982
   1112 C           2.7619   16.8246   20.8871 C.3   186  UNL186      0.0330
   1113 H           3.1557   16.6214   21.8860 H     186  UNL186      0.0521
   1114 H           3.0008   17.8489   20.5910 H     186  UNL186      0.0521
   1115 H           3.2078   16.1279   20.1733 H     186  UNL186      0.0521
   1116 H           0.9897   17.2785   21.5292 H     186  UNL186      0.2090
   1117 O           3.0083   15.9948   23.3790 O.3   187  UNL187     -0.3982
   1118 C           2.3957   17.2712   23.3790 C.3   187  UNL187      0.0330
   1119 H           1.5444   17.2679   24.0642 H     187  UNL187      0.0521
   1120 H           2.0622   17.5162   22.3677 H     187  UNL187      0.0521
   1121 H           3.1243   18.0149   23.7102 H     187  UNL187      0.0521
   1122 H           2.3381   15.3563   23.0810 H     187  UNL187      0.2090
   1123 O           3.1301   19.1799   -0.8506 O.3   188  UNL188     -0.3982
   1124 C           2.3388   19.4929    0.2810 C.3   188  UNL188      0.0330
   1125 H           2.0422   18.5702    0.7859 H     188  UNL188      0.0521
   1126 H           1.4529   20.0487   -0.0354 H     188  UNL188      0.0521
   1127 H           2.9266   20.1080    0.9664 H     188  UNL188      0.0521
   1128 H           2.5823   18.6341   -1.4401 H     188  UNL188      0.2090
   1129 O           3.4894   19.4832    2.3379 O.3   189  UNL189     -0.3982
   1130 C           2.0736   19.4832    2.3379 C.3   189  UNL189      0.0330
   1131 H           1.7083   18.7142    3.0231 H     189  UNL189      0.0521
   1132 H           1.7084   19.2885    1.3266 H     189  UNL189      0.0521
   1133 H           1.7183   20.4618    2.6691 H     189  UNL189      0.0521
   1134 H           3.7751   18.6028    2.0399 H     189  UNL189      0.2090
   1135 O           0.0359   20.2912    3.6999 O.3   190  UNL190     -0.3982
   1136 C           0.8832   20.2912    4.8342 C.3   190  UNL190      0.0330
   1137 H           0.3051   20.0232    5.7220 H     190  UNL190      0.0521
   1138 H           1.3253   21.2825    4.9597 H     190  UNL190      0.0521
   1139 H           1.6778   19.5566    4.6840 H     190  UNL190      0.0521
   1140 H          -0.6587   20.9521    3.8621 H     190  UNL190      0.2090
   1141 O           3.4894   19.4832    7.0137 O.3   191  UNL191     -0.3982
   1142 C           2.0736   19.4832    7.0137 C.3   191  UNL191      0.0330
   1143 H           1.7083   18.7142    7.6989 H     191  UNL191      0.0521
   1144 H           1.7084   19.2885    6.0024 H     191  UNL191      0.0521
   1145 H           1.7183   20.4618    7.3449 H     191  UNL191      0.0521
   1146 H           3.7751   18.6028    6.7157 H     191  UNL191      0.2090
   1147 O           1.0225   20.2354    9.3891 O.3   192  UNL192     -0.3982
   1148 C           0.3664   18.9808    9.3891 C.3   192  UNL192      0.0330
   1149 H           0.2758   18.6160    8.3630 H     192  UNL192      0.0521
   1150 H          -0.6240   19.0866    9.8384 H     192  UNL192      0.0521
   1151 H           0.9559   18.2716    9.9749 H     192  UNL192      0.0521
   1152 H           0.4764   20.8434    8.8621 H     192  UNL192      0.2090
   1153 O           3.4894   19.4832   11.6895 O.3   193  UNL193     -0.3982
   1154 C           2.0736   19.4832   11.6895 C.3   193  UNL193      0.0330
   1155 H           1.7083   18.7142   12.3747 H     193  UNL193      0.0521
   1156 H           1.7084   19.2885   10.6782 H     193  UNL193      0.0521
   1157 H           1.7183   20.4618   12.0207 H     193  UNL193      0.0521
   1158 H           3.7751   18.6028   11.3915 H     193  UNL193      0.2090
   1159 O          -0.1057   21.3971   13.9125 O.3   194  UNL194     -0.3982
   1160 C           0.7416   20.2629   13.9125 C.3   194  UNL194      0.0330
   1161 H           0.1934   19.3974   14.2929 H     194  UNL194      0.0521
   1162 H           1.6146   20.4591   14.5396 H     194  UNL194      0.0521
   1163 H           1.0683   20.0634   12.8892 H     194  UNL194      0.0521
   1164 H          -0.3793   21.5494   14.8331 H     194  UNL194      0.2090
   1165 O           2.7593   18.2348   16.1645 O.3   195  UNL195     -0.3982
   1166 C           2.1032   19.4796   16.3214 C.3   195  UNL195      0.0330
   1167 H           2.6154   20.2400   15.7267 H     195  UNL195      0.0521
   1168 H           2.1066   19.7637   17.3765 H     195  UNL195      0.0521
   1169 H           1.0714   19.3835   15.9755 H     195  UNL195      0.0521
   1170 H           3.6718   18.3511   16.4795 H     195  UNL195      0.2090
   1171 O           2.1116   18.4017   18.1960 O.3   196  UNL196     -0.3982
   1172 C           2.5042   19.5360   18.9469 C.3   196  UNL196      0.0330
   1173 H           1.7129   20.2889   18.9122 H     196  UNL196      0.0521
   1174 H           3.4294   19.9451   18.5337 H     196  UNL196      0.0521
   1175 H           2.6726   19.2350   19.9835 H     196  UNL196      0.0521
   1176 H           1.9696   18.6997   17.2814 H     196  UNL196      0.2090
   1177 O           3.5015   19.3504   21.1427 O.3   197  UNL197     -0.3982
   1178 C           2.0857   19.3504   21.1427 C.3   197  UNL197      0.0330
   1179 H           1.7204   18.3869   20.7788 H     197  UNL197      0.0521
   1180 H           1.7205   20.1564   20.5016 H     197  UNL197      0.0521
   1181 H           1.7304   19.5104   22.1634 H     197  UNL197      0.0521
   1182 H           3.7872   19.2066   20.2245 H     197  UNL197      0.2090
   1183 O           2.0585   19.3113   24.3790 O.3   198  UNL198     -0.3982
   1184 C           2.6928   20.5770   24.3790 C.3   198  UNL198      0.0330
   1185 H           2.1690   21.2482   25.0642 H     198  UNL198      0.0521
   1186 H           2.6824   20.9907   23.3677 H     198  UNL198      0.0521
   1187 H           3.7269   20.4562   24.7102 H     198  UNL198      0.0521
   1188 H           1.1434   19.4504   24.0810 H     198  UNL198      0.2090
   1189 O           5.0409   -0.2666    0.0418 O.3   199  UNL199     -0.3982
   1190 C           3.6251   -0.2666    0.0418 C.3   199  UNL199      0.0330
   1191 H           3.2598   -0.3906   -0.9807 H     199  UNL199      0.0521
   1192 H           3.2599    0.6750    0.4589 H     199  UNL199      0.0521
   1193 H           3.2698   -1.0970    0.6565 H     199  UNL199      0.0521
   1194 H           5.3266    0.4804   -0.5112 H     199  UNL199      0.2090
   1195 O           4.2709    1.8448    2.1443 O.3   200  UNL200     -0.3982
   1196 C           2.8551    1.8448    2.1443 C.3   200  UNL200      0.0330
   1197 H           2.4898    2.8540    2.3503 H     200  UNL200      0.0521
   1198 H           2.4899    1.1511    2.9055 H     200  UNL200      0.0521
   1199 H           2.4998    1.5245    1.1621 H     200  UNL200      0.0521
   1200 H           4.5566    2.1330    3.0280 H     200  UNL200      0.2090
   1201 O           4.2828   -1.6498    2.9351 O.3   201  UNL201     -0.3982
   1202 C           5.5417   -1.0826    2.6221 C.3   201  UNL201      0.0330
   1203 H           5.4070   -0.0441    2.3097 H     201  UNL201      0.0521
   1204 H           6.0120   -1.6574    1.8205 H     201  UNL201      0.0521
   1205 H           6.1764   -1.1141    3.5108 H     201  UNL201      0.0521
   1206 H           3.7420   -1.6079    2.1281 H     201  UNL201      0.2090
   1207 O           5.7716   -1.9677    7.4865 O.3   202  UNL202     -0.3982
   1208 C           4.9277   -1.4005    6.5013 C.3   202  UNL202      0.0330
   1209 H           4.7088   -0.3620    6.7617 H     202  UNL202      0.0521
   1210 H           4.0004   -1.9753    6.4400 H     202  UNL202      0.0521
   1211 H           5.4378   -1.4320    5.5357 H     202  UNL202      0.0521
   1212 H           5.2925   -1.9258    8.3316 H     202  UNL202      0.2090
   1213 O           6.2709   -1.0726    9.3516 O.3   203  UNL203     -0.3982
   1214 C           4.8551   -1.0726    9.3516 C.3   203  UNL203      0.0330
   1215 H           4.4898   -1.8416   10.0368 H     203  UNL203      0.0521
   1216 H           4.4899   -1.2673    8.3403 H     203  UNL203      0.0521
   1217 H           4.4998   -0.0940    9.6828 H     203  UNL203      0.0521
   1218 H           6.5566   -1.9530    9.0536 H     203  UNL203      0.2090
   1219 O           3.2592    0.8651   11.6774 O.3   204  UNL204     -0.3982
   1220 C           2.6031   -0.3895   11.6774 C.3   204  UNL204      0.0330
   1221 H           3.1153   -1.0696   12.3626 H     204  UNL204      0.0521
   1222 H           2.6064   -0.8034   10.6661 H     204  UNL204      0.0521
   1223 H           1.5713   -0.2509   12.0086 H     204  UNL204      0.0521
   1224 H           4.1717    0.7103   11.3794 H     204  UNL204      0.2090
   1225 O           3.9306   -0.9099   14.0274 O.3   205  UNL205     -0.3982
   1226 C           3.2746    0.3447   14.0274 C.3   205  UNL205      0.0330
   1227 H           2.4239    0.3121   14.7126 H     205  UNL205      0.0521
   1228 H           2.9328    0.5781   13.0161 H     205  UNL205      0.0521
   1229 H           3.9771    1.1130   14.3586 H     205  UNL205      0.0521
   1230 H           3.2828   -1.5710   13.7294 H     205  UNL205      0.2090
   1231 O           3.4061    0.0000   15.3845 O.3   206  UNL206     -0.3982
   1232 C           2.7500    0.0000   16.6391 C.3   206  UNL206      0.0330
   1233 H           3.1879   -0.7690   17.2804 H     206  UNL206      0.0521
   1234 H           1.6846   -0.1947   16.4942 H     206  UNL206      0.0521
   1235 H           2.8789    0.9786   17.1075 H     206  UNL206      0.0521
   1236 H           3.2744   -0.8804   14.9933 H     206  UNL206      0.2090
   1237 O           3.7848    1.8448   19.5540 O.3   207  UNL207     -0.3982
   1238 C           3.1288    1.8448   18.2994 C.3   207  UNL207      0.0330
   1239 H           2.7769    2.8540   18.0711 H     207  UNL207      0.0521
   1240 H           2.2850    1.1511   18.3285 H     207  UNL207      0.0521
   1241 H           3.8345    1.5245   17.5294 H     207  UNL207      0.0521
   1242 H           3.1341    2.1330   20.2166 H     207  UNL207      0.2090
   1243 O           4.5099   -1.0484   21.8261 O.3   208  UNL208     -0.3982
   1244 C           5.3572   -1.0484   20.6918 C.3   208  UNL208      0.0330
   1245 H           5.0268   -1.8174   19.9891 H     208  UNL208      0.0521
   1246 H           6.3859   -1.2431   21.0045 H     208  UNL208      0.0521
   1247 H           5.3045   -0.0698   20.2090 H     208  UNL208      0.0521
   1248 H           4.5776   -1.9288   22.2333 H     208  UNL208      0.2090
   1249 O           5.6798   -0.0054   22.3669 O.3   209  UNL209     -0.3982
   1250 C           4.8885   -0.2448   23.5163 C.3   209  UNL209      0.0330
   1251 H           4.7768    0.6832   24.0826 H     209  UNL209      0.0521
   1252 H           5.3663   -1.0073   24.1362 H     209  UNL209      0.0521
   1253 H           3.9036   -0.5982   23.2022 H     209  UNL209      0.0521
   1254 H           6.5469    0.3069   22.6769 H     209  UNL209      0.2090
   1255 O           3.3734    2.5957    0.1006 O.3   210  UNL210     -0.3982
   1256 C           2.8753    2.0701   -1.1160 C.3   210  UNL210      0.0330
   1257 H           3.6750    1.5405   -1.6398 H     210  UNL210      0.0521
   1258 H           2.4954    2.8847   -1.7374 H     210  UNL210      0.0521
   1259 H           2.0631    1.3733   -0.8959 H     210  UNL210      0.0521
   1260 H           4.0922    3.2100   -0.1266 H     210  UNL210      0.2090
   1261 O           6.2709    2.1657    0.4238 O.3   211  UNL211     -0.3982
   1262 C           4.8551    2.1657    0.4238 C.3   211  UNL211      0.0330
   1263 H           4.4898    2.0770   -0.6023 H     211  UNL211      0.0521
   1264 H           4.4899    3.0924    0.8731 H     211  UNL211      0.0521
   1265 H           4.4998    1.3147    1.0096 H     211  UNL211      0.0521
   1266 H           6.5566    2.9313   -0.1032 H     211  UNL211      0.2090
   1267 O           5.9467    1.0619    4.7771 O.3   212  UNL212     -0.3982
   1268 C           4.8756    0.1905    4.4641 C.3   212  UNL212      0.0330
   1269 H           4.3475   -0.0833    5.3809 H     212  UNL212      0.0521
   1270 H           5.2647   -0.7051    3.9738 H     212  UNL212      0.0521
   1271 H           4.1866    0.7028    3.7885 H     212  UNL212      0.0521
   1272 H           6.5409    0.5800    5.3774 H     212  UNL212      0.2090
   1273 O           3.6724    2.6685    6.0025 O.3   213  UNL213     -0.3982
   1274 C           2.8812    2.3555    7.1341 C.3   213  UNL213      0.0330
   1275 H           3.5311    2.1146    7.9790 H     213  UNL213      0.0521
   1276 H           2.2348    1.5050    6.9038 H     213  UNL213      0.0521
   1277 H           2.2644    3.2211    7.3868 H     213  UNL213      0.0521
   1278 H           4.2083    1.8822    5.8023 H     213  UNL213      0.2090
   1279 O           6.0247    1.9854    6.8368 O.3   214  UNL214     -0.3982
   1280 C           4.7524    1.9854    7.4577 C.3   214  UNL214      0.0330
   1281 H           4.7246    1.2164    8.2337 H     214  UNL214      0.0521
   1282 H           3.9806    1.7907    6.7091 H     214  UNL214      0.0521
   1283 H           4.5783    2.9640    7.9112 H     214  UNL214      0.0521
   1284 H           6.1508    1.1050    6.4437 H     214  UNL214      0.2090
   1285 O           4.5220   -1.0409   12.1549 O.3   215  UNL215     -0.3982
   1286 C           5.3693   -0.0357   11.6293 C.3   215  UNL215      0.0330
   1287 H           5.0389    0.2307   10.6222 H     215  UNL215      0.0521
   1288 H           6.3980   -0.4030   11.6016 H     215  UNL215      0.0521
   1289 H           5.3166    0.8456   12.2727 H     215  UNL215      0.0521
   1290 H           4.5897   -1.8097   11.5634 H     215  UNL215      0.2090
   1291 O           5.8756    2.2912   14.8236 O.3   216  UNL216     -0.3982
   1292 C           5.1668    2.2785   13.5981 C.3   216  UNL216      0.0330
   1293 H           4.6545    3.2342   13.4625 H     216  UNL216      0.0521
   1294 H           4.4411    1.4615   13.6044 H     216  UNL216      0.0521
   1295 H           5.8747    2.1277   12.7798 H     216  UNL216      0.0521
   1296 H           5.2217    2.4265   15.5305 H     216  UNL216      0.2090
   1297 O           6.2588    2.1657   16.4028 O.3   217  UNL217     -0.3982
   1298 C           4.8430    2.1657   16.4028 C.3   217  UNL217      0.0330
   1299 H           4.4777    2.0770   15.3767 H     217  UNL217      0.0521
   1300 H           4.4778    3.0924   16.8521 H     217  UNL217      0.0521
   1301 H           4.4877    1.3147   16.9886 H     217  UNL217      0.0521
   1302 H           6.5445    2.9313   15.8758 H     217  UNL217      0.2090
   1303 O           6.2830    2.3994   18.7615 O.3   218  UNL218     -0.3982
   1304 C           4.8672    2.3994   18.7615 C.3   218  UNL218      0.0330
   1305 H           4.5019    1.4078   19.0401 H     218  UNL218      0.0521
   1306 H           4.5020    2.6679   17.7673 H     218  UNL218      0.0521
   1307 H           4.5119    3.1336   19.4883 H     218  UNL218      0.0521
   1308 H           6.5687    1.7389   18.1076 H     218  UNL218      0.2090
   1309 O           4.4455    2.6078   21.7032 O.3   219  UNL219     -0.3982
   1310 C           5.2928    2.0822   20.6980 C.3   219  UNL219      0.0330
   1311 H           6.1275    1.5526   21.1640 H     219  UNL219      0.0521
   1312 H           5.6673    2.8968   20.0734 H     219  UNL219      0.0521
   1313 H           4.7214    1.3854   20.0803 H     219  UNL219      0.0521
   1314 H           4.9799    3.2221   22.2348 H     219  UNL219      0.2090
   1315 O           5.6855    3.2435   23.5165 O.3   220  UNL220     -0.3982
   1316 C           4.8942    2.1120   23.2035 C.3   220  UNL220      0.0330
   1317 H           4.6957    1.5417   24.1144 H     220  UNL220      0.0521
   1318 H           5.4207    1.4877   22.4775 H     220  UNL220      0.0521
   1319 H           3.9479    2.4481   22.7732 H     220  UNL220      0.0521
   1320 H           6.5178    2.9139   23.8961 H     220  UNL220      0.2090
   1321 O           6.0139    4.9272   -0.2837 O.3   221  UNL221     -0.3982
   1322 C           5.0998    4.5935   -1.3121 C.3   221  UNL221      0.0330
   1323 H           4.6571    5.5066   -1.7178 H     221  UNL221      0.0521
   1324 H           4.3182    3.9446   -0.9096 H     221  UNL221      0.0521
   1325 H           5.6347    4.0668   -2.1058 H     221  UNL221      0.0521
   1326 H           5.5108    5.3931    0.4057 H     221  UNL221      0.2090
   1327 O           6.2709    4.6011    2.3754 O.3   222  UNL222     -0.3982
   1328 C           4.8551    4.6011    2.3754 C.3   222  UNL222      0.0330
   1329 H           4.4898    4.5124    1.3493 H     222  UNL222      0.0521
   1330 H           4.4899    5.5278    2.8247 H     222  UNL222      0.0521
   1331 H           4.4998    3.7501    2.9612 H     222  UNL222      0.0521
   1332 H           6.5566    5.3667    1.8484 H     222  UNL222      0.2090
   1333 O           4.6645    1.8498    4.6758 O.3   223  UNL223     -0.3982
   1334 C           5.5118    2.9841    4.6758 C.3   223  UNL223      0.0330
   1335 H           5.1144    3.7370    5.3610 H     223  UNL223      0.0521
   1336 H           5.5744    3.3932    3.6645 H     223  UNL223      0.0521
   1337 H           6.5085    2.6831    5.0070 H     223  UNL223      0.0521
   1338 H           3.7882    2.1478    4.3778 H     223  UNL223      0.2090
   1339 O           6.2709    4.7986    6.8307 O.3   224  UNL224     -0.3982
   1340 C           4.8551    4.7986    6.8307 C.3   224  UNL224      0.0330
   1341 H           4.4898    5.3470    7.7026 H     224  UNL224      0.0521
   1342 H           4.4899    3.7690    6.8553 H     224  UNL224      0.0521
   1343 H           4.4998    5.2873    5.9205 H     224  UNL224      0.0521
   1344 H           6.5566    4.3589    7.6496 H     224  UNL224      0.2090
   1345 O           4.1072    2.6455    9.3516 O.3   225  UNL225     -0.3982
   1346 C           5.5050    2.4203    9.3516 C.3   225  UNL225      0.0330
   1347 H           5.9880    3.1213   10.0368 H     225  UNL225      0.0521
   1348 H           5.8965    2.5544    8.3403 H     225  UNL225      0.0521
   1349 H           5.7000    1.3976    9.6828 H     225  UNL225      0.0521
   1350 H           3.9652    3.5602    9.0536 H     225  UNL225      0.2090
   1351 O           6.2709    2.9324   11.6895 O.3   226  UNL226     -0.3982
   1352 C           4.8551    2.9324   11.6895 C.3   226  UNL226      0.0330
   1353 H           4.4898    2.1634   12.3747 H     226  UNL226      0.0521
   1354 H           4.4899    2.7377   10.6782 H     226  UNL226      0.0521
   1355 H           4.4998    3.9110   12.0207 H     226  UNL226      0.0521
   1356 H           6.5566    2.0520   11.3915 H     226  UNL226      0.2090
   1357 O           5.2721    5.1252   12.9631 O.3   227  UNL227     -0.3982
   1358 C           4.9681    4.5438   14.2178 C.3   227  UNL227      0.0330
   1359 H           5.0775    5.2945   15.0044 H     227  UNL227      0.0521
   1360 H           5.6422    3.7043   14.4042 H     227  UNL227      0.0521
   1361 H           3.9368    4.1836   14.2019 H     227  UNL227      0.0521
   1362 H           6.1926    5.4353   13.0075 H     227  UNL227      0.2090
   1363 O           6.2709    4.6793   16.1717 O.3   228  UNL228     -0.3982
   1364 C           4.8551    4.6793   16.1717 C.3   228  UNL228      0.0330
   1365 H           4.4898    5.6885   16.3777 H     228  UNL228      0.0521
   1366 H           4.4899    3.9856   16.9329 H     228  UNL228      0.0521
   1367 H           4.4998    4.3590   15.1895 H     228  UNL228      0.0521
   1368 H           6.5566    4.9675   17.0554 H     228  UNL228      0.2090
   1369 O           6.2560    4.9527   18.7163 O.3   229  UNL229     -0.3982
   1370 C           4.8728    4.7732   18.4736 C.3   229  UNL229      0.0330
   1371 H           4.3009    5.1432   19.3282 H     229  UNL229      0.0521
   1372 H           4.6646    3.7124   18.3140 H     229  UNL229      0.0521
   1373 H           4.5930    5.3355   17.5797 H     229  UNL229      0.0521
   1374 H           6.4746    4.4424   19.5146 H     229  UNL229      0.2090
   1375 O           5.8206    3.8388   21.0411 O.3   230  UNL230     -0.3982
   1376 C           5.1646    5.0934   21.0411 C.3   230  UNL230      0.0330
   1377 H           4.3139    5.0608   21.7263 H     230  UNL230      0.0521
   1378 H           4.8228    5.3268   20.0298 H     230  UNL230      0.0521
   1379 H           5.8671    5.8617   21.3723 H     230  UNL230      0.0521
   1380 H           5.1728    3.1777   20.7431 H     230  UNL230      0.2090
   1381 O           4.6524    4.3299   24.1941 O.3   231  UNL231     -0.3982
   1382 C           5.4997    4.8555   23.1889 C.3   231  UNL231      0.0330
   1383 H           5.1023    5.8116   22.8393 H     231  UNL231      0.0521
   1384 H           5.5623    4.1489   22.3578 H     231  UNL231      0.0521
   1385 H           6.4964    5.0095   23.6091 H     231  UNL231      0.0521
   1386 H           3.7761    4.2039   23.7919 H     231  UNL231      0.2090
   1387 O           4.0406    4.3721    0.1089 O.3   232  UNL232     -0.3982
   1388 C           3.3846    5.6267    0.1089 C.3   232  UNL232      0.0330
   1389 H           2.5339    5.5941    0.7941 H     232  UNL232      0.0521
   1390 H           3.0428    5.8601   -0.9024 H     232  UNL232      0.0521
   1391 H           4.0871    6.3950    0.4401 H     232  UNL232      0.0521
   1392 H           3.3928    3.7110   -0.1891 H     232  UNL232      0.2090
   1393 O           4.8949    7.9265    0.6280 O.3   233  UNL233     -0.3982
   1394 C           5.2875    6.7923    1.3789 C.3   233  UNL233      0.0330
   1395 H           5.0671    6.9598    2.4360 H     233  UNL233      0.0521
   1396 H           6.3573    6.6162    1.2422 H     233  UNL233      0.0521
   1397 H           4.7293    5.9220    1.0260 H     233  UNL233      0.0521
   1398 H           5.4066    8.6823    0.9634 H     233  UNL233      0.2090
   1399 O           4.2093    7.3425    4.7242 O.3   234  UNL234     -0.3982
   1400 C           2.7935    7.3425    4.7242 C.3   234  UNL234      0.0330
   1401 H           2.4282    6.5735    5.4094 H     234  UNL234      0.0521
   1402 H           2.4283    7.1478    3.7129 H     234  UNL234      0.0521
   1403 H           2.4382    8.3211    5.0554 H     234  UNL234      0.0521
   1404 H           4.4950    6.4621    4.4262 H     234  UNL234      0.2090
   1405 O           6.2830    7.1256    7.1273 O.3   235  UNL235     -0.3982
   1406 C           4.8672    7.1256    7.1273 C.3   235  UNL235      0.0330
   1407 H           4.5019    6.3225    6.4824 H     235  UNL235      0.0521
   1408 H           4.5020    8.0907    6.7679 H     235  UNL235      0.0521
   1409 H           4.5119    6.9610    8.1473 H     235  UNL235      0.0521
   1410 H           6.5687    7.2737    6.2097 H     235  UNL235      0.2090
   1411 O           4.2709    7.3062    9.3516 O.3   236  UNL236     -0.3982
   1412 C           2.8551    7.3062    9.3516 C.3   236  UNL236      0.0330
   1413 H           2.4898    6.5372   10.0368 H     236  UNL236      0.0521
   1414 H           2.4899    7.1115    8.3403 H     236  UNL236      0.0521
   1415 H           2.4998    8.2848    9.6828 H     236  UNL236      0.0521
   1416 H           4.5566    6.4258    9.0536 H     236  UNL236      0.2090
   1417 O           6.2709    5.1102    9.8370 O.3   237  UNL237     -0.3982
   1418 C           4.8551    5.1102    9.8370 C.3   237  UNL237      0.0330
   1419 H           4.4898    5.0215    8.8109 H     237  UNL237      0.0521
   1420 H           4.4899    6.0369   10.2863 H     237  UNL237      0.0521
   1421 H           4.4998    4.2592   10.4228 H     237  UNL237      0.0521
   1422 H           6.5566    5.8758    9.3100 H     237  UNL237      0.2090
   1423 O           5.5653    6.3829   11.5066 O.3   238  UNL238     -0.3982
   1424 C           5.2575    7.5145   12.3000 C.3   238  UNL238      0.0330
   1425 H           5.2288    7.2252   13.3534 H     238  UNL238      0.0521
   1426 H           4.2898    7.9211   11.9962 H     238  UNL238      0.0521
   1427 H           6.0309    8.2721   12.1534 H     238  UNL238      0.0521
   1428 H           4.8622    5.7284   11.6575 H     238  UNL238      0.2090
   1429 O           6.2830    7.1377   16.4668 O.3   239  UNL239     -0.3982
   1430 C           4.8672    7.1377   16.4668 C.3   239  UNL239      0.0330
   1431 H           4.5019    6.3346   15.8219 H     239  UNL239      0.0521
   1432 H           4.5020    8.1028   16.1074 H     239  UNL239      0.0521
   1433 H           4.5119    6.9731   17.4868 H     239  UNL239      0.0521
   1434 H           6.5687    7.2858   15.5492 H     239  UNL239      0.2090
   1435 O           4.3435    7.2721   18.5492 O.3   240  UNL240     -0.3982
   1436 C           2.9277    7.2721   18.5492 C.3   240  UNL240      0.0330
   1437 H           2.5624    7.5229   19.5481 H     240  UNL240      0.0521
   1438 H           2.5625    6.2857   18.2531 H     240  UNL240      0.0521
   1439 H           2.5724    8.0190   17.8354 H     240  UNL240      0.0521
   1440 H           4.6292    6.6000   19.1913 H     240  UNL240      0.2090
   1441 O           5.6495    7.3062   21.9695 O.3   241  UNL241     -0.3982
   1442 C           4.9935    7.3062   20.7149 C.3   241  UNL241      0.0330
   1443 H           4.2170    6.5372   20.7087 H     241  UNL241      0.0521
   1444 H           5.7204    7.1115   19.9226 H     241  UNL241      0.0521
   1445 H           4.5354    8.2848   20.5535 H     241  UNL241      0.0521
   1446 H           6.0460    6.4258   22.0846 H     241  UNL241      0.2090
   1447 O           6.2709    7.3062   23.3790 O.3   242  UNL242     -0.3982
   1448 C           4.8551    7.3062   23.3790 C.3   242  UNL242      0.0330
   1449 H           4.4898    6.5372   24.0642 H     242  UNL242      0.0521
   1450 H           4.4899    7.1115   22.3677 H     242  UNL242      0.0521
   1451 H           4.4998    8.2848   23.7102 H     242  UNL242      0.0521
   1452 H           6.5566    6.4258   23.0810 H     242  UNL242      0.2090
   1453 O           4.4334    8.3377   -1.0484 O.3   243  UNL243     -0.3982
   1454 C           5.2807    7.2035   -1.0484 C.3   243  UNL243      0.0330
   1455 H           6.1154    7.3710   -0.3632 H     243  UNL243      0.0521
   1456 H           5.6552    7.0274   -2.0597 H     243  UNL243      0.0521
   1457 H           4.7093    6.3332   -0.7172 H     243  UNL243      0.0521
   1458 H           4.9678    9.0935   -1.3464 H     243  UNL243      0.2090
   1459 O           6.2709    9.6573    2.1549 O.3   244  UNL244     -0.3982
   1460 C           4.8551    9.6573    2.1549 C.3   244  UNL244      0.0330
   1461 H           4.4898   10.2057    3.0268 H     244  UNL244      0.0521
   1462 H           4.4899    8.6277    2.1795 H     244  UNL244      0.0521
   1463 H           4.4998   10.1460    1.2447 H     244  UNL244      0.0521
   1464 H           6.5566    9.2176    2.9738 H     244  UNL244      0.2090
   1465 O           5.5992    6.9496    5.2712 O.3   245  UNL245     -0.3982
   1466 C           5.1733    7.8606    4.2746 C.3   245  UNL245      0.0330
   1467 H           5.9280    8.6404    4.1460 H     245  UNL245      0.0521
   1468 H           4.2203    8.3060    4.5702 H     245  UNL245      0.0521
   1469 H           5.0446    7.3222    3.3327 H     245  UNL245      0.0521
   1470 H           5.7047    7.4558    6.0947 H     245  UNL245      0.2090
   1471 O           6.2709    9.5501    6.8201 O.3   246  UNL246     -0.3982
   1472 C           4.8551    9.5501    6.8201 C.3   246  UNL246      0.0330
   1473 H           4.4898   10.5593    7.0261 H     246  UNL246      0.0521
   1474 H           4.4899    8.8564    7.5813 H     246  UNL246      0.0521
   1475 H           4.4998    9.2298    5.8379 H     246  UNL246      0.0521
   1476 H           6.5566    9.8383    7.7038 H     246  UNL246      0.2090
   1477 O           5.9299    9.4984   10.1470 O.3   247  UNL247     -0.3982
   1478 C           5.1387    9.8114    9.0155 C.3   247  UNL247      0.0330
   1479 H           4.0804    9.7321    9.2765 H     247  UNL247      0.0521
   1480 H           5.3768    9.1224    8.2014 H     247  UNL247      0.0521
   1481 H           5.3583   10.8341    8.7002 H     247  UNL247      0.0521
   1482 H           5.7134    8.5857   10.4035 H     247  UNL247      0.2090
   1483 O           4.4535    9.7416   11.6895 O.3   248  UNL248     -0.3982
   1484 C           3.0377    9.7416   11.6895 C.3   248  UNL248      0.0330
   1485 H           2.6724    8.9726   12.3747 H     248  UNL248      0.0521
   1486 H           2.6725    9.5469   10.6782 H     248  UNL248      0.0521
   1487 H           2.6824   10.7202   12.0207 H     248  UNL248      0.0521
   1488 H           4.7392    8.8612   11.3915 H     248  UNL248      0.2090
   1489 O           2.5019    8.7774   14.2177 O.3   249  UNL249     -0.3982
   1490 C           3.2459    9.9657   14.0203 C.3   249  UNL249      0.0330
   1491 H           3.1750   10.2715   12.9735 H     249  UNL249      0.0521
   1492 H           4.2904    9.7916   14.2902 H     249  UNL249      0.0521
   1493 H           2.8339   10.7527   14.6563 H     249  UNL249      0.0521
   1494 H           2.8904    8.0979   13.6409 H     249  UNL249      0.2090
   1495 O           5.5969   10.6021   16.4236 O.3   250  UNL250     -0.3982
   1496 C           4.9408    9.3475   16.4236 C.3   250  UNL250      0.0330
   1497 H           5.6503    8.5643   16.7022 H     250  UNL250      0.0521
   1498 H           4.5337    9.1483   15.4294 H     250  UNL250      0.0521
   1499 H           4.1256    9.3728   17.1504 H     250  UNL250      0.0521
   1500 H           6.3146   10.5492   15.7697 H     250  UNL250      0.2090
   1501 O           5.6857   10.1396   19.5107 O.3   251  UNL251     -0.3982
   1502 C           5.0417    9.5835   18.3792 C.3   251  UNL251      0.0330
   1503 H           4.6216    8.6089   18.6402 H     251  UNL251      0.0521
   1504 H           5.7625    9.4752   17.5651 H     251  UNL251      0.0521
   1505 H           4.2371   10.2520   18.0639 H     251  UNL251      0.0521
   1506 H           6.3941    9.5248   19.7672 H     251  UNL251      0.2090
   1507 O           6.2709    9.7416   21.0411 O.3   252  UNL252     -0.3982
   1508 C           4.8551    9.7416   21.0411 C.3   252  UNL252      0.0330
   1509 H           4.4898    8.9726   21.7263 H     252  UNL252      0.0521
   1510 H           4.4899    9.5469   20.0298 H     252  UNL252      0.0521
   1511 H           4.4998   10.7202   21.3723 H     252  UNL252      0.0521
   1512 H           6.5566    8.8612   20.7431 H     252  UNL252      0.2090
   1513 O           6.2830    9.4719   24.4286 O.3   253  UNL253     -0.3982
   1514 C           4.8672    9.4719   24.4286 C.3   253  UNL253      0.0330
   1515 H           4.5019    9.3832   23.4025 H     253  UNL253      0.0521
   1516 H           4.5020   10.3986   24.8779 H     253  UNL253      0.0521
   1517 H           4.5119    8.6209   25.0144 H     253  UNL253      0.0521
   1518 H           6.5687   10.2375   23.9016 H     253  UNL253      0.2090
   1519 O           3.8822   11.1329   -0.0121 O.3   254  UNL254     -0.3982
   1520 C           3.2262   12.3875   -0.0121 C.3   254  UNL254      0.0330
   1521 H           2.3755   12.3549    0.6731 H     254  UNL254      0.0521
   1522 H           2.8844   12.6209   -1.0234 H     254  UNL254      0.0521
   1523 H           3.9287   13.1558    0.3191 H     254  UNL254      0.0521
   1524 H           3.2344   10.4718   -0.3101 H     254  UNL254      0.2090
   1525 O           5.5492   10.9448    2.3173 O.3   255  UNL255     -0.3982
   1526 C           4.8932   12.1994    2.3173 C.3   255  UNL255      0.0330
   1527 H           4.0122   12.1510    1.6724 H     255  UNL255      0.0521
   1528 H           5.5792   12.9703    1.9579 H     255  UNL255      0.0521
   1529 H           4.5827   12.4380    3.3373 H     255  UNL255      0.0521
   1530 H           5.8128   10.7603    1.3997 H     255  UNL255      0.2090
   1531 O           5.8573   11.2280    4.9361 O.3   256  UNL256     -0.3982
   1532 C           5.0661   12.3758    4.6891 C.3   256  UNL256      0.0330
   1533 H           4.0078   12.1078    4.7398 H     256  UNL256      0.0521
   1534 H           5.3042   12.7779    3.7014 H     256  UNL256      0.0521
   1535 H           5.2857   13.1291    5.4494 H     256  UNL256      0.0521
   1536 H           5.6408   10.5779    4.2462 H     256  UNL256      0.2090
   1537 O           5.6652   11.0719    6.8630 O.3   257  UNL257     -0.3982
   1538 C           4.8461   12.2017    7.1017 C.3   257  UNL257      0.0330
   1539 H           4.5741   12.6635    6.1493 H     257  UNL257      0.0521
   1540 H           5.3854   12.9185    7.7256 H     257  UNL257      0.0521
   1541 H           3.9397   11.8802    7.6202 H     257  UNL257      0.0521
   1542 H           6.4610   11.3882    6.4022 H     257  UNL257      0.2090
   1543 O           6.3072   12.1410    9.3978 O.3   258  UNL258     -0.3982
   1544 C           4.8914   12.1410    9.3978 C.3   258  UNL258      0.0330
   1545 H           4.5261   11.1494    9.6764 H     258  UNL258      0.0521
   1546 H           4.5262   12.4095    8.4036 H     258  UNL258      0.0521
   1547 H           4.5361   12.8752   10.1246 H     258  UNL258      0.0521
   1548 H           6.5929   11.4805    8.7439 H     258  UNL258      0.2090
   1549 O           5.8573   11.9338   12.4970 O.3   259  UNL259     -0.3982
   1550 C           5.0661   12.2468   11.3655 C.3   259  UNL259      0.0330
   1551 H           4.0078   12.1675   11.6265 H     259  UNL259      0.0521
   1552 H           5.3042   11.5578   10.5514 H     259  UNL259      0.0521
   1553 H           5.2857   13.2695   11.0502 H     259  UNL259      0.0521
   1554 H           5.6408   11.0211   12.7535 H     259  UNL259      0.2090
   1555 O           6.2709   11.9073   14.0649 O.3   260  UNL260     -0.3982
   1556 C           4.8551   11.9073   14.0649 C.3   260  UNL260      0.0330
   1557 H           4.4898   11.8186   13.0388 H     260  UNL260      0.0521
   1558 H           4.4899   12.8340   14.5142 H     260  UNL260      0.0521
   1559 H           4.4998   11.0563   14.6507 H     260  UNL260      0.0521
   1560 H           6.5566   12.6729   13.5379 H     260  UNL260      0.2090
   1561 O           4.3688   12.1770   16.3653 O.3   261  UNL261     -0.3982
   1562 C           2.9530   12.1770   16.3653 C.3   261  UNL261      0.0330
   1563 H           2.5877   11.4080   17.0505 H     261  UNL261      0.0521
   1564 H           2.5878   11.9823   15.3540 H     261  UNL261      0.0521
   1565 H           2.5977   13.1556   16.6965 H     261  UNL261      0.0521
   1566 H           4.6545   11.2966   16.0673 H     261  UNL261      0.2090
   1567 O           5.8211   11.9855   19.5419 O.3   262  UNL262     -0.3982
   1568 C           5.1651   11.9855   18.2873 C.3   262  UNL262      0.0330
   1569 H           4.8132   12.9947   18.0590 H     262  UNL262      0.0521
   1570 H           4.3213   11.2918   18.3164 H     262  UNL262      0.0521
   1571 H           5.8708   11.6652   17.5173 H     262  UNL262      0.0521
   1572 H           5.1704   12.2737   20.2045 H     262  UNL262      0.2090
   1573 O           4.4293   12.1289   21.0873 O.3   263  UNL263     -0.3982
   1574 C           3.0135   12.1289   21.0873 C.3   263  UNL263      0.0330
   1575 H           2.6482   11.1373   21.3659 H     263  UNL263      0.0521
   1576 H           2.6483   12.3974   20.0931 H     263  UNL263      0.0521
   1577 H           2.6582   12.8631   21.8141 H     263  UNL263      0.0521
   1578 H           4.7150   11.4684   20.4334 H     263  UNL263      0.2090
   1579 O           5.7994   11.8306   24.3203 O.3   264  UNL264     -0.3982
   1580 C           5.3882   11.7061   22.9713 C.3   264  UNL264      0.0330
   1581 H           5.4735   12.6747   22.4725 H     264  UNL264      0.0521
   1582 H           4.3538   11.3558   22.9356 H     264  UNL264      0.0521
   1583 H           6.0334   10.9818   22.4686 H     264  UNL264      0.0521
   1584 H           5.2091   12.4792   24.7402 H     264  UNL264      0.2090
   1585 O           5.5302   12.4298   -0.9931 O.3   265  UNL265     -0.3982
   1586 C           5.2957   12.4298    0.4032 C.3   265  UNL265      0.0330
   1587 H           5.9110   11.6608    0.8769 H     265  UNL265      0.0521
   1588 H           4.2379   12.2351    0.5959 H     265  UNL265      0.0521
   1589 H           5.5635   13.4084    0.8084 H     265  UNL265      0.0521
   1590 H           5.2836   11.5494   -1.3242 H     265  UNL265      0.2090
   1591 O           5.5996   14.7004    0.1515 O.3   266  UNL266     -0.3982
   1592 C           4.9435   14.7004    1.4062 C.3   266  UNL266      0.0330
   1593 H           5.6595   14.9512    2.1928 H     266  UNL266      0.0521
   1594 H           4.5119   13.7140    1.5926 H     266  UNL266      0.0521
   1595 H           4.1464   15.4473    1.3903 H     266  UNL266      0.0521
   1596 H           6.3009   14.0283    0.1959 H     266  UNL266      0.2090
   1597 O           6.1609   14.3817    3.8258 O.3   267  UNL267     -0.3982
   1598 C           4.7451   14.3817    3.8258 C.3   267  UNL267      0.0330
   1599 H           4.3798   13.4182    3.4619 H     267  UNL267      0.0521
   1600 H           4.3799   15.1877    3.1847 H     267  UNL267      0.0521
   1601 H           4.3898   14.5417    4.8465 H     267  UNL267      0.0521
   1602 H           6.4466   14.2379    2.9076 H     267  UNL267      0.2090
   1603 O           3.7845   14.6124    6.0329 O.3   268  UNL268     -0.3982
   1604 C           3.1284   14.6124    7.2875 C.3   268  UNL268      0.0330
   1605 H           3.5663   13.8434    7.9288 H     268  UNL268      0.0521
   1606 H           2.0630   14.4177    7.1426 H     268  UNL268      0.0521
   1607 H           3.2573   15.5910    7.7559 H     268  UNL268      0.0521
   1608 H           3.6528   13.7320    5.6417 H     268  UNL268      0.2090
   1609 O           6.2709   14.3229    9.2570 O.3   269  UNL269     -0.3982
   1610 C           4.8551   14.3229    9.2570 C.3   269  UNL269      0.0330
   1611 H           4.4898   15.0772    8.5557 H     269  UNL269      0.0521
   1612 H           4.4899   14.5390   10.2640 H     269  UNL269      0.0521
   1613 H           4.4998   13.3375    8.9467 H     269  UNL269      0.0521
   1614 H           6.5566   15.2094    9.5363 H     269  UNL269      0.2090
   1615 O           5.6495   14.6003   12.6179 O.3   270  UNL270     -0.3982
   1616 C           4.9935   14.6003   11.3633 C.3   270  UNL270      0.0330
   1617 H           4.2170   13.8313   11.3570 H     270  UNL270      0.0521
   1618 H           5.7204   14.4056   10.5710 H     270  UNL270      0.0521
   1619 H           4.5354   15.5789   11.2019 H     270  UNL270      0.0521
   1620 H           6.0460   13.7199   12.7330 H     270  UNL270      0.2090
   1621 O           5.8206   13.5683   14.0274 O.3   271  UNL271     -0.3982
   1622 C           5.1646   14.8229   14.0274 C.3   271  UNL271      0.0330
   1623 H           4.3139   14.7903   14.7126 H     271  UNL271      0.0521
   1624 H           4.8228   15.0563   13.0161 H     271  UNL271      0.0521
   1625 H           5.8671   15.5912   14.3586 H     271  UNL271      0.0521
   1626 H           5.1728   12.9072   13.7294 H     271  UNL271      0.2090
   1627 O           4.3173   14.6124   15.8879 O.3   272  UNL272     -0.3982
   1628 C           3.0450   14.6124   16.5088 C.3   272  UNL272      0.0330
   1629 H           3.0172   13.8434   17.2848 H     272  UNL272      0.0521
   1630 H           2.2732   14.4177   15.7602 H     272  UNL272      0.0521
   1631 H           2.8709   15.5910   16.9623 H     272  UNL272      0.0521
   1632 H           4.4434   13.7320   15.4948 H     272  UNL272      0.2090
   1633 O           6.2709   14.5643   18.7615 O.3   273  UNL273     -0.3982
   1634 C           4.8551   14.5643   18.7615 C.3   273  UNL273      0.0330
   1635 H           4.4898   13.5727   19.0401 H     273  UNL273      0.0521
   1636 H           4.4899   14.8328   17.7673 H     273  UNL273      0.0521
   1637 H           4.4998   15.2985   19.4883 H     273  UNL273      0.0521
   1638 H           6.5566   13.9038   18.1076 H     273  UNL273      0.2090
   1639 O           5.1341   15.2765   21.6911 O.3   274  UNL274     -0.3982
   1640 C           5.0609   14.2821   20.6859 C.3   274  UNL274      0.0330
   1641 H           4.9784   13.2970   21.1519 H     274  UNL274      0.0521
   1642 H           5.9563   14.3276   20.0613 H     274  UNL274      0.0521
   1643 H           4.1787   14.4655   20.0682 H     274  UNL274      0.0521
   1644 H           5.9260   15.0876   22.2227 H     274  UNL274      0.2090
   1645 O           6.1620   13.6024   23.3185 O.3   275  UNL275     -0.3982
   1646 C           4.7462   13.6024   23.3185 C.3   275  UNL275      0.0330
   1647 H           4.3809   12.8334   24.0037 H     275  UNL275      0.0521
   1648 H           4.3810   13.4077   22.3072 H     275  UNL275      0.0521
   1649 H           4.3909   14.5810   23.6497 H     275  UNL275      0.0521
   1650 H           6.4477   12.7220   23.0205 H     275  UNL275      0.2090
   1651 O           6.2709   15.0236   -1.0484 O.3   276  UNL276     -0.3982
   1652 C           4.8551   15.0236   -1.0484 C.3   276  UNL276      0.0330
   1653 H           4.4898   14.2546   -0.3632 H     276  UNL276      0.0521
   1654 H           4.4899   14.8289   -2.0597 H     276  UNL276      0.0521
   1655 H           4.4998   16.0022   -0.7172 H     276  UNL276      0.0521
   1656 H           6.5566   14.1432   -1.3464 H     276  UNL276      0.2090
   1657 O           6.2709   16.9635    2.1670 O.3   277  UNL277     -0.3982
   1658 C           4.8551   16.9635    2.1670 C.3   277  UNL277      0.0330
   1659 H           4.4898   17.5119    3.0389 H     277  UNL277      0.0521
   1660 H           4.4899   15.9339    2.1916 H     277  UNL277      0.0521
   1661 H           4.4998   17.4522    1.2568 H     277  UNL277      0.0521
   1662 H           6.5566   16.5238    2.9859 H     277  UNL277      0.2090
   1663 O           6.2709   16.8563    4.4822 O.3   278  UNL278     -0.3982
   1664 C           4.8551   16.8563    4.4822 C.3   278  UNL278      0.0330
   1665 H           4.4898   17.8655    4.6882 H     278  UNL278      0.0521
   1666 H           4.4899   16.1626    5.2434 H     278  UNL278      0.0521
   1667 H           4.4998   16.5360    3.5000 H     278  UNL278      0.0521
   1668 H           6.5566   17.1445    5.3659 H     278  UNL278      0.2090
   1669 O           5.7897   15.9948    7.0137 O.3   279  UNL279     -0.3982
   1670 C           5.1772   17.2712    7.0137 C.3   279  UNL279      0.0330
   1671 H           4.3259   17.2679    7.6989 H     279  UNL279      0.0521
   1672 H           4.8437   17.5162    6.0024 H     279  UNL279      0.0521
   1673 H           5.9058   18.0149    7.3449 H     279  UNL279      0.0521
   1674 H           5.1196   15.3563    6.7157 H     279  UNL279      0.2090
   1675 O           5.7346   17.8363    9.1580 O.3   280  UNL280     -0.3982
   1676 C           5.0786   16.5816    9.1580 C.3   280  UNL280      0.0330
   1677 H           4.0150   16.7255    9.3640 H     280  UNL280      0.0521
   1678 H           5.5241   15.9366    9.9192 H     280  UNL280      0.0521
   1679 H           5.1978   16.1184    8.1758 H     280  UNL280      0.0521
   1680 H           5.6117   18.2230   10.0417 H     280  UNL280      0.2090
   1681 O           6.2709   17.0357   11.6895 O.3   281  UNL281     -0.3982
   1682 C           4.8551   17.0357   11.6895 C.3   281  UNL281      0.0330
   1683 H           4.4898   16.2667   12.3747 H     281  UNL281      0.0521
   1684 H           4.4899   16.8410   10.6782 H     281  UNL281      0.0521
   1685 H           4.4998   18.0143   12.0207 H     281  UNL281      0.0521
   1686 H           6.5566   16.1553   11.3915 H     281  UNL281      0.2090
   1687 O           6.2709   17.0478   14.0274 O.3   282  UNL282     -0.3982
   1688 C           4.8551   17.0478   14.0274 C.3   282  UNL282      0.0330
   1689 H           4.4898   16.2788   14.7126 H     282  UNL282      0.0521
   1690 H           4.4899   16.8531   13.0161 H     282  UNL282      0.0521
   1691 H           4.4998   18.0264   14.3586 H     282  UNL282      0.0521
   1692 H           6.5566   16.1674   13.7294 H     282  UNL282      0.2090
   1693 O           5.8206   16.0037   16.3653 O.3   283  UNL283     -0.3982
   1694 C           5.1646   17.2583   16.3653 C.3   283  UNL283      0.0330
   1695 H           4.3139   17.2257   17.0505 H     283  UNL283      0.0521
   1696 H           4.8228   17.4917   15.3540 H     283  UNL283      0.0521
   1697 H           5.8671   18.0266   16.6965 H     283  UNL283      0.0521
   1698 H           5.1728   15.3426   16.0673 H     283  UNL283      0.2090
   1699 O           4.3435   17.0357   18.7032 O.3   284  UNL284     -0.3982
   1700 C           2.9277   17.0357   18.7032 C.3   284  UNL284      0.0330
   1701 H           2.5624   16.2667   19.3884 H     284  UNL284      0.0521
   1702 H           2.5625   16.8410   17.6919 H     284  UNL284      0.0521
   1703 H           2.5724   18.0143   19.0344 H     284  UNL284      0.0521
   1704 H           4.6292   16.1553   18.4052 H     284  UNL284      0.2090
   1705 O           6.2709   16.9756   20.8581 O.3   285  UNL285     -0.3982
   1706 C           4.8551   16.9756   20.8581 C.3   285  UNL285      0.0330
   1707 H           4.4898   17.5240   21.7300 H     285  UNL285      0.0521
   1708 H           4.4899   15.9460   20.8827 H     285  UNL285      0.0521
   1709 H           4.4998   17.4643   19.9479 H     285  UNL285      0.0521
   1710 H           6.5566   16.5359   21.6770 H     285  UNL285      0.2090
   1711 O           5.6976   17.1797   24.2605 O.3   286  UNL286     -0.3982
   1712 C           4.9063   16.9328   23.1127 C.3   286  UNL286      0.0330
   1713 H           4.7078   15.8614   23.0294 H     286  UNL286      0.0521
   1714 H           5.4328   17.2869   22.2231 H     286  UNL286      0.0521
   1715 H           3.9600   17.4699   23.2112 H     286  UNL286      0.0521
   1716 H           6.5299   16.6907   24.1443 H     286  UNL286      0.2090
   1717 O           5.6374   18.3939    0.2762 O.3   287  UNL287     -0.3982
   1718 C           4.9814   17.2821   -0.3052 C.3   287  UNL287      0.0330
   1719 H           4.2049   16.9202    0.3734 H     287  UNL287      0.0521
   1720 H           5.7083   16.4898   -0.4998 H     287  UNL287      0.0521
   1721 H           4.5233   17.5925   -1.2472 H     287  UNL287      0.0521
   1722 H           6.0339   18.0879    1.1097 H     287  UNL287      0.2090
   1723 O           6.2709   19.2917    2.1443 O.3   288  UNL288     -0.3982
   1724 C           4.8551   19.2917    2.1443 C.3   288  UNL288      0.0330
   1725 H           4.4898   20.3009    2.3503 H     288  UNL288      0.0521
   1726 H           4.4899   18.5980    2.9055 H     288  UNL288      0.0521
   1727 H           4.4998   18.9714    1.1621 H     288  UNL288      0.0521
   1728 H           6.5566   19.5799    3.0280 H     288  UNL288      0.2090
   1729 O           4.3435   20.5437    4.6758 O.3   289  UNL289     -0.3982
   1730 C           2.9277   20.5437    4.6758 C.3   289  UNL289      0.0330
   1731 H           2.5624   19.7747    5.3610 H     289  UNL289      0.0521
   1732 H           2.5625   20.3490    3.6645 H     289  UNL289      0.0521
   1733 H           2.5724   21.5223    5.0070 H     289  UNL289      0.0521
   1734 H           4.6292   19.6633    4.3778 H     289  UNL289      0.2090
   1735 O           6.2709   19.4832    7.0137 O.3   290  UNL290     -0.3982
   1736 C           4.8551   19.4832    7.0137 C.3   290  UNL290      0.0330
   1737 H           4.4898   18.7142    7.6989 H     290  UNL290      0.0521
   1738 H           4.4899   19.2885    6.0024 H     290  UNL290      0.0521
   1739 H           4.4998   20.4618    7.3449 H     290  UNL290      0.0521
   1740 H           6.5566   18.6028    6.7157 H     290  UNL290      0.2090
   1741 O           4.3072   19.2135    9.3891 O.3   291  UNL291     -0.3982
   1742 C           2.8914   19.2135    9.3891 C.3   291  UNL291      0.0330
   1743 H           2.5261   19.1248    8.3630 H     291  UNL291      0.0521
   1744 H           2.5262   20.1402    9.8384 H     291  UNL291      0.0521
   1745 H           2.5361   18.3625    9.9749 H     291  UNL291      0.0521
   1746 H           4.5929   19.9791    8.8621 H     291  UNL291      0.2090
   1747 O           6.2830   19.4832   11.6895 O.3   292  UNL292     -0.3982
   1748 C           4.8672   19.4832   11.6895 C.3   292  UNL292      0.0330
   1749 H           4.5019   18.7142   12.3747 H     292  UNL292      0.0521
   1750 H           4.5020   19.2885   10.6782 H     292  UNL292      0.0521
   1751 H           4.5119   20.4618   12.0207 H     292  UNL292      0.0521
   1752 H           6.5687   18.6028   11.3915 H     292  UNL292      0.2090
   1753 O           2.8762   19.2750   14.0274 O.3   293  UNL293     -0.3982
   1754 C           3.5106   20.5407   14.0274 C.3   293  UNL293      0.0330
   1755 H           2.9868   21.2119   14.7126 H     293  UNL293      0.0521
   1756 H           3.5002   20.9544   13.0161 H     293  UNL293      0.0521
   1757 H           4.5447   20.4199   14.3586 H     293  UNL293      0.0521
   1758 H           1.9611   19.4141   13.7294 H     293  UNL293      0.2090
   1759 O           5.6495   19.4832   17.2937 O.3   294  UNL294     -0.3982
   1760 C           4.9935   19.4832   16.0391 C.3   294  UNL294      0.0330
   1761 H           4.2170   18.7142   16.0329 H     294  UNL294      0.0521
   1762 H           5.7204   19.2885   15.2468 H     294  UNL294      0.0521
   1763 H           4.5354   20.4618   15.8777 H     294  UNL294      0.0521
   1764 H           6.0460   18.6028   17.4088 H     294  UNL294      0.2090
   1765 O           6.1609   19.8224   18.6911 O.3   295  UNL295     -0.3982
   1766 C           4.8149   19.3831   18.6911 C.3   295  UNL295      0.0330
   1767 H           4.7062   18.5388   19.3763 H     295  UNL295      0.0521
   1768 H           4.5281   19.0848   17.6798 H     295  UNL295      0.0521
   1769 H           4.1735   20.2032   19.0223 H     295  UNL295      0.0521
   1770 H           6.7056   19.0740   18.3931 H     295  UNL295      0.2090
   1771 O           6.2709   19.3147   21.1426 O.3   296  UNL296     -0.3982
   1772 C           4.8551   19.3147   21.1426 C.3   296  UNL296      0.0330
   1773 H           4.4898   18.5116   20.4977 H     296  UNL296      0.0521
   1774 H           4.4899   20.2798   20.7832 H     296  UNL296      0.0521
   1775 H           4.4998   19.1501   22.1626 H     296  UNL296      0.0521
   1776 H           6.5566   19.4628   20.2250 H     296  UNL296      0.2090
   1777 O           4.6645   18.9423   24.1941 O.3   297  UNL297     -0.3982
   1778 C           5.5118   19.4679   23.1889 C.3   297  UNL297      0.0330
   1779 H           5.1144   20.4240   22.8393 H     297  UNL297      0.0521
   1780 H           5.5744   18.7613   22.3578 H     297  UNL297      0.0521
   1781 H           6.5085   19.6219   23.6091 H     297  UNL297      0.0521
   1782 H           3.7882   18.8163   23.7919 H     297  UNL297      0.2090
   1783 O           9.0160   -1.0363   -1.0000 O.3   298  UNL298     -0.3982
   1784 C           7.6002   -1.0363   -1.0000 C.3   298  UNL298      0.0330
   1785 H           7.2349   -1.8053   -0.3148 H     298  UNL298      0.0521
   1786 H           7.2350   -1.2310   -2.0113 H     298  UNL298      0.0521
   1787 H           7.2449   -0.0577   -0.6688 H     298  UNL298      0.0521
   1788 H           9.3017   -1.9167   -1.2980 H     298  UNL298      0.2090
   1789 O           9.4431   -1.0363    3.2663 O.3   299  UNL299     -0.3982
   1790 C           8.7871   -1.0363    2.0117 C.3   299  UNL299      0.0330
   1791 H           8.0106   -1.8053    2.0054 H     299  UNL299      0.0521
   1792 H           9.5140   -1.2310    1.2194 H     299  UNL299      0.0521
   1793 H           8.3289   -0.0577    1.8503 H     299  UNL299      0.0521
   1794 H           9.8396   -1.9167    3.3814 H     299  UNL299      0.2090
   1795 O          10.0402   -0.0378    4.5181 O.3   300  UNL300     -0.3982
   1796 C           8.6244   -0.0378    4.5181 C.3   300  UNL300      0.0330
   1797 H           8.2591    0.2472    5.5078 H     300  UNL300      0.0521
   1798 H           8.2592   -1.0338    4.2561 H     300  UNL300      0.0521
   1799 H           8.2691    0.6842    3.7791 H     300  UNL300      0.0521
   1800 H          10.3259   -0.6874    5.1829 H     300  UNL300      0.2090
   1801 O           7.4923   -0.0121    7.0258 O.3   301  UNL301     -0.3982
   1802 C           6.0765   -0.0121    7.0258 C.3   301  UNL301      0.0330
   1803 H           5.7112   -0.7811    7.7110 H     301  UNL301      0.0521
   1804 H           5.7113   -0.2068    6.0145 H     301  UNL301      0.0521
   1805 H           5.7212    0.9665    7.3570 H     301  UNL301      0.0521
   1806 H           7.7780   -0.8925    6.7278 H     301  UNL301      0.2090
   1807 O          10.1744   -1.0726    9.4605 O.3   302  UNL302     -0.3982
   1808 C           8.7586   -1.0726    9.4605 C.3   302  UNL302      0.0330
   1809 H           8.3933   -1.8416   10.1457 H     302  UNL302      0.0521
   1810 H           8.3934   -1.2673    8.4492 H     302  UNL302      0.0521
   1811 H           8.4033   -0.0940    9.7917 H     302  UNL302      0.0521
   1812 H          10.4601   -1.9530    9.1625 H     302  UNL302      0.2090
   1813 O          10.0160   -0.1685   11.7910 O.3   303  UNL303     -0.3982
   1814 C           8.6002   -0.1685   11.7910 C.3   303  UNL303      0.0330
   1815 H           8.2349   -0.9716   11.1461 H     303  UNL303      0.0521
   1816 H           8.2350    0.7966   11.4316 H     303  UNL303      0.0521
   1817 H           8.2449   -0.3331   12.8110 H     303  UNL303      0.0521
   1818 H          10.3017   -0.0204   10.8734 H     303  UNL303      0.2090
   1819 O           8.2875    0.6324   14.0274 O.3   304  UNL304     -0.3982
   1820 C           9.1348   -0.5018   14.0274 C.3   304  UNL304      0.0330
   1821 H           9.9695   -0.3343   14.7126 H     304  UNL304      0.0521
   1822 H           9.5093   -0.6779   13.0161 H     304  UNL304      0.0521
   1823 H           8.5634   -1.3721   14.3586 H     304  UNL304      0.0521
   1824 H           8.8218    1.3882   13.7294 H     304  UNL304      0.2090
   1825 O          10.1139   -1.0726   16.4742 O.3   305  UNL305     -0.3982
   1826 C           8.6981   -1.0726   16.4742 C.3   305  UNL305      0.0330
   1827 H           8.3328   -1.8416   17.1594 H     305  UNL305      0.0521
   1828 H           8.3329   -1.2673   15.4629 H     305  UNL305      0.0521
   1829 H           8.3428   -0.0940   16.8054 H     305  UNL305      0.0521
   1830 H          10.3996   -1.9530   16.1762 H     305  UNL305      0.2090
   1831 O          10.0160   -0.1685   18.8047 O.3   306  UNL306     -0.3982
   1832 C           8.6002   -0.1685   18.8047 C.3   306  UNL306      0.0330
   1833 H           8.2349   -0.9716   18.1598 H     306  UNL306      0.0521
   1834 H           8.2350    0.7966   18.4453 H     306  UNL306      0.0521
   1835 H           8.2449   -0.3331   19.8247 H     306  UNL306      0.0521
   1836 H          10.3017   -0.0204   17.8871 H     306  UNL306      0.2090
   1837 O           8.2512    0.6324   21.0411 O.3   307  UNL307     -0.3982
   1838 C           9.0985   -0.5018   21.0411 C.3   307  UNL307      0.0330
   1839 H           9.9332   -0.3343   21.7263 H     307  UNL307      0.0521
   1840 H           9.4730   -0.6779   20.0298 H     307  UNL307      0.0521
   1841 H           8.5271   -1.3721   21.3723 H     307  UNL307      0.0521
   1842 H           8.7855    1.3882   20.7431 H     307  UNL307      0.2090
   1843 O          10.0402   -1.0484   24.4153 O.3   308  UNL308     -0.3982
   1844 C           8.6244   -1.0484   24.4153 C.3   308  UNL308      0.0330
   1845 H           8.2591   -1.8174   25.1005 H     308  UNL308      0.0521
   1846 H           8.2592   -1.2431   23.4040 H     308  UNL308      0.0521
   1847 H           8.2691   -0.0698   24.7465 H     308  UNL308      0.0521
   1848 H          10.3259   -1.9288   24.1173 H     308  UNL308      0.2090
   1849 O          10.2349    0.4354    0.0000 O.3   309  UNL309     -0.3982
   1850 C           8.8191    0.4354    0.0000 C.3   309  UNL309      0.0330
   1851 H           8.4538   -0.3336    0.6852 H     309  UNL309      0.0521
   1852 H           8.4539    0.2407   -1.0113 H     309  UNL309      0.0521
   1853 H           8.4638    1.4140    0.3312 H     309  UNL309      0.0521
   1854 H          10.5206   -0.4450   -0.2980 H     309  UNL309      0.2090
   1855 O           9.8697    2.2439    2.1443 O.3   310  UNL310     -0.3982
   1856 C           8.4539    2.2439    2.1443 C.3   310  UNL310      0.0330
   1857 H           8.0886    3.2531    2.3503 H     310  UNL310      0.0521
   1858 H           8.0887    1.5502    2.9055 H     310  UNL310      0.0521
   1859 H           8.0986    1.9236    1.1621 H     310  UNL310      0.0521
   1860 H          10.1554    2.5321    3.0280 H     310  UNL310      0.2090
   1861 O          10.0886    2.4354    4.6758 O.3   311  UNL311     -0.3982
   1862 C           8.6728    2.4354    4.6758 C.3   311  UNL311      0.0330
   1863 H           8.3075    1.6664    5.3610 H     311  UNL311      0.0521
   1864 H           8.3076    2.2407    3.6645 H     311  UNL311      0.0521
   1865 H           8.3175    3.4140    5.0070 H     311  UNL311      0.0521
   1866 H          10.3743    1.5550    4.3778 H     311  UNL311      0.2090
   1867 O           9.2678    3.3157    8.7629 O.3   312  UNL312     -0.3982
   1868 C           8.6118    2.0611    8.7629 C.3   312  UNL312      0.0330
   1869 H           8.7886    1.5564    9.7159 H     312  UNL312      0.0521
   1870 H           8.9906    1.4509    7.9394 H     312  UNL312      0.0521
   1871 H           7.5391    2.2211    8.6314 H     312  UNL312      0.0521
   1872 H          10.2172    3.1417    8.8812 H     312  UNL312      0.2090
   1873 O           9.0523    0.5739    9.1459 O.3   313  UNL313     -0.3982
   1874 C           7.6365    0.5739    9.1459 C.3   313  UNL313      0.0330
   1875 H           7.2712    1.5831    9.3519 H     313  UNL313      0.0521
   1876 H           7.2713   -0.1198    9.9071 H     313  UNL313      0.0521
   1877 H           7.2812    0.2536    8.1637 H     313  UNL313      0.0521
   1878 H           9.3380    0.8621   10.0296 H     313  UNL313      0.2090
   1879 O          10.0523    2.4354   11.6895 O.3   314  UNL314     -0.3982
   1880 C           8.6365    2.4354   11.6895 C.3   314  UNL314      0.0330
   1881 H           8.2712    1.6664   12.3747 H     314  UNL314      0.0521
   1882 H           8.2713    2.2407   10.6782 H     314  UNL314      0.0521
   1883 H           8.2812    3.4140   12.0207 H     314  UNL314      0.0521
   1884 H          10.3380    1.5550   11.3915 H     314  UNL314      0.2090
   1885 O          10.1249    2.4422   15.8855 O.3   315  UNL315     -0.3982
   1886 C           8.7091    2.4422   15.8855 C.3   315  UNL315      0.0330
   1887 H           8.3438    2.0516   16.8385 H     315  UNL315      0.0521
   1888 H           8.3439    1.8237   15.0620 H     315  UNL315      0.0521
   1889 H           8.3538    3.4669   15.7540 H     315  UNL315      0.0521
   1890 H          10.4106    1.5203   16.0038 H     315  UNL315      0.2090
   1891 O           9.0523    0.8376   16.1713 O.3   316  UNL316     -0.3982
   1892 C           7.6365    0.8376   16.1713 C.3   316  UNL316      0.0330
   1893 H           7.2712    1.1226   17.1610 H     316  UNL316      0.0521
   1894 H           7.2713   -0.1584   15.9093 H     316  UNL316      0.0521
   1895 H           7.2812    1.5596   15.4323 H     316  UNL316      0.0521
   1896 H           9.3380    0.1880   16.8361 H     316  UNL316      0.2090
   1897 O           9.5538    2.4354   17.7224 O.3   317  UNL317     -0.3982
   1898 C           8.8978    2.4354   18.9770 C.3   317  UNL317      0.0330
   1899 H           9.3357    1.6664   19.6183 H     317  UNL317      0.0521
   1900 H           7.8324    2.2407   18.8321 H     317  UNL317      0.0521
   1901 H           9.0267    3.4140   19.4454 H     317  UNL317      0.0521
   1902 H           9.4221    1.5550   17.3312 H     317  UNL317      0.2090
   1903 O          10.1623    2.3095   23.1314 O.3   318  UNL318     -0.3982
   1904 C           8.7465    2.3095   23.1314 C.3   318  UNL318      0.0330
   1905 H           8.3812    1.3591   22.7345 H     318  UNL318      0.0521
   1906 H           8.3813    3.1371   22.5183 H     318  UNL318      0.0521
   1907 H           8.3912    2.4343   24.1569 H     318  UNL318      0.0521
   1908 H          10.4480    2.1973   22.2087 H     318  UNL318      0.2090
   1909 O           9.0402    1.0613   24.0787 O.3   319  UNL319     -0.3982
   1910 C           7.6244    1.0613   24.0787 C.3   319  UNL319      0.0330
   1911 H           7.2591    1.3121   25.0776 H     319  UNL319      0.0521
   1912 H           7.2592    0.0749   23.7826 H     319  UNL319      0.0521
   1913 H           7.2691    1.8082   23.3649 H     319  UNL319      0.0521
   1914 H           9.3259    0.3892   24.7208 H     319  UNL319      0.2090
   1915 O           9.8700    5.5435   -1.2156 O.3   320  UNL320     -0.3982
   1916 C           9.0787    4.3941   -0.9762 C.3   320  UNL320      0.0330
   1917 H           8.8689    3.8913   -1.9236 H     320  UNL320      0.0521
   1918 H           8.1440    4.6884   -0.4928 H     320  UNL320      0.0521
   1919 H           9.6278    3.7152   -0.3197 H     320  UNL320      0.0521
   1920 H           9.3570    6.1268   -1.8005 H     320  UNL320      0.2090
   1921 O          10.1865    4.8708    2.3379 O.3   321  UNL321     -0.3982
   1922 C           8.7707    4.8708    2.3379 C.3   321  UNL321      0.0330
   1923 H           8.4054    4.1018    3.0231 H     321  UNL321      0.0521
   1924 H           8.4055    4.6761    1.3266 H     321  UNL321      0.0521
   1925 H           8.4154    5.8494    2.6691 H     321  UNL321      0.0521
   1926 H          10.4722    3.9904    2.0399 H     321  UNL321      0.2090
   1927 O           9.5441    4.6011    7.4753 O.3   322  UNL322     -0.3982
   1928 C           8.8880    4.6011    6.2207 C.3   322  UNL322      0.0330
   1929 H           9.6281    4.5124    5.4215 H     322  UNL322      0.0521
   1930 H           8.3207    5.5278    6.1052 H     322  UNL322      0.0521
   1931 H           8.2043    3.7501    6.1772 H     322  UNL322      0.0521
   1932 H          10.1434    5.3667    7.4843 H     322  UNL322      0.2090
   1933 O           9.0523    2.5088    6.8201 O.3   323  UNL323     -0.3982
   1934 C           7.6365    2.5088    6.8201 C.3   323  UNL323      0.0330
   1935 H           7.2712    3.5180    7.0261 H     323  UNL323      0.0521
   1936 H           7.2713    1.8151    7.5813 H     323  UNL323      0.0521
   1937 H           7.2812    2.1885    5.8379 H     323  UNL323      0.0521
   1938 H           9.3380    2.7970    7.7038 H     323  UNL323      0.2090
   1939 O          10.0039    4.6410    9.1768 O.3   324  UNL324     -0.3982
   1940 C           8.5881    4.6410    9.1768 C.3   324  UNL324      0.0330
   1941 H           8.2228    5.6677    9.0948 H     324  UNL324      0.0521
   1942 H           8.2229    4.1857   10.1005 H     324  UNL324      0.0521
   1943 H           8.2328    4.0608    8.3220 H     324  UNL324      0.0521
   1944 H          10.2896    5.1630    9.9459 H     324  UNL324      0.2090
   1945 O          10.2107    4.6011   13.7512 O.3   325  UNL325     -0.3982
   1946 C           8.7949    4.6011   13.7512 C.3   325  UNL325      0.0330
   1947 H           8.4296    4.5124   12.7251 H     325  UNL325      0.0521
   1948 H           8.4297    5.5278   14.2005 H     325  UNL325      0.0521
   1949 H           8.4396    3.7501   14.3370 H     325  UNL325      0.0521
   1950 H          10.4964    5.3667   13.2242 H     325  UNL325      0.2090
   1951 O           9.0523    2.7156   13.8338 O.3   326  UNL326     -0.3982
   1952 C           7.6365    2.7156   13.8338 C.3   326  UNL326      0.0330
   1953 H           7.2712    3.7248   14.0398 H     326  UNL326      0.0521
   1954 H           7.2713    2.0219   14.5950 H     326  UNL326      0.0521
   1955 H           7.2812    2.3953   12.8516 H     326  UNL326      0.0521
   1956 H           9.3380    3.0038   14.7175 H     326  UNL326      0.2090
   1957 O           9.6113    4.6011   15.4019 O.3   327  UNL327     -0.3982
   1958 C           8.9553    4.6011   16.6565 C.3   327  UNL327      0.0330
   1959 H           7.8766    4.5124   16.5048 H     327  UNL327      0.0521
   1960 H           9.1841    5.5278   17.1883 H     327  UNL327      0.0521
   1961 H           9.3097    3.7501   17.2428 H     327  UNL327      0.0521
   1962 H           9.2767    5.3667   14.9045 H     327  UNL327      0.2090
   1963 O          10.2844    4.6011   20.7891 O.3   328  UNL328     -0.3982
   1964 C           8.8686    4.6011   20.7891 C.3   328  UNL328      0.0330
   1965 H           8.5033    4.5124   19.7630 H     328  UNL328      0.0521
   1966 H           8.5034    5.5278   21.2384 H     328  UNL328      0.0521
   1967 H           8.5133    3.7501   21.3749 H     328  UNL328      0.0521
   1968 H          10.5701    5.3667   20.2621 H     328  UNL328      0.2090
   1969 O           9.0523    2.6309   20.8475 O.3   329  UNL329     -0.3982
   1970 C           7.6365    2.6309   20.8475 C.3   329  UNL329      0.0330
   1971 H           7.2712    3.6401   21.0535 H     329  UNL329      0.0521
   1972 H           7.2713    1.9372   21.6087 H     329  UNL329      0.0521
   1973 H           7.2812    2.3106   19.8653 H     329  UNL329      0.0521
   1974 H           9.3380    2.9191   21.7312 H     329  UNL329      0.2090
   1975 O          10.0523    4.6793   24.1491 O.3   330  UNL330     -0.3982
   1976 C           8.6365    4.6793   24.1491 C.3   330  UNL330      0.0330
   1977 H           8.2712    5.6885   24.3551 H     330  UNL330      0.0521
   1978 H           8.2713    3.9856   24.9103 H     330  UNL330      0.0521
   1979 H           8.2812    4.3590   23.1669 H     330  UNL330      0.0521
   1980 H          10.3380    4.9675   25.0328 H     330  UNL330      0.2090
   1981 O          10.0039    7.0724   -1.3068 O.3   331  UNL331     -0.3982
   1982 C           8.5881    7.0724   -1.3068 C.3   331  UNL331      0.0330
   1983 H           8.2228    7.7258   -2.1030 H     331  UNL331      0.0521
   1984 H           8.2229    7.4216   -0.3379 H     331  UNL331      0.0521
   1985 H           8.2328    6.0542   -1.4822 H     331  UNL331      0.0521
   1986 H          10.2896    7.9883   -1.1489 H     331  UNL331      0.2090
   1987 O           8.4228    7.4665    1.2563 O.3   332  UNL332     -0.3982
   1988 C           9.2701    6.9409    0.2511 C.3   332  UNL332      0.0330
   1989 H          10.1048    6.4113    0.7171 H     332  UNL332      0.0521
   1990 H           9.6446    7.7555   -0.3735 H     332  UNL332      0.0521
   1991 H           8.6987    6.2441   -0.3666 H     332  UNL332      0.0521
   1992 H           8.9571    8.0808    1.7879 H     332  UNL332      0.2090
   1993 O           9.7738    7.2941    1.8776 O.3   333  UNL333     -0.3982
   1994 C           9.1178    7.2941    3.1322 C.3   333  UNL333      0.0330
   1995 H           9.5557    6.5251    3.7735 H     333  UNL333      0.0521
   1996 H           8.0524    7.0994    2.9873 H     333  UNL333      0.0521
   1997 H           9.2467    8.2727    3.6006 H     333  UNL333      0.0521
   1998 H           9.6421    6.4137    1.4864 H     333  UNL333      0.2090
   1999 O           9.4280    7.2340    5.9481 O.3   334  UNL334     -0.3982
   2000 C           8.7719    7.2340    7.2028 C.3   334  UNL334      0.0330
   2001 H           9.3753    7.7824    7.9305 H     334  UNL334      0.0521
   2002 H           8.6245    6.2044    7.5378 H     334  UNL334      0.0521
   2003 H           7.8007    7.7227    7.0958 H     334  UNL334      0.0521
   2004 H          10.2860    6.7943    6.0744 H     334  UNL334      0.2090
   2005 O           9.9918    7.3062    9.3516 O.3   335  UNL335     -0.3982
   2006 C           8.5760    7.3062    9.3516 C.3   335  UNL335      0.0330
   2007 H           8.2107    6.5372   10.0368 H     335  UNL335      0.0521
   2008 H           8.2108    7.1115    8.3403 H     335  UNL335      0.0521
   2009 H           8.2207    8.2848    9.6828 H     335  UNL335      0.0521
   2010 H          10.2775    6.4258    9.0536 H     335  UNL335      0.2090
   2011 O           9.9665    7.4910   13.4629 O.3   336  UNL336     -0.3982
   2012 C           8.5507    7.4910   13.4629 C.3   336  UNL336      0.0330
   2013 H           8.1854    7.7418   14.4618 H     336  UNL336      0.0521
   2014 H           8.1855    6.5046   13.1668 H     336  UNL336      0.0521
   2015 H           8.1954    8.2379   12.7491 H     336  UNL336      0.0521
   2016 H          10.2522    6.8189   14.1050 H     336  UNL336      0.2090
   2017 O           9.1381    6.7978   14.0417 O.3   337  UNL337     -0.3982
   2018 C           7.7223    6.7978   14.0417 C.3   337  UNL337      0.0330
   2019 H           7.3570    7.5521   13.3404 H     337  UNL337      0.0521
   2020 H           7.3571    7.0139   15.0487 H     337  UNL337      0.0521
   2021 H           7.3670    5.8124   13.7314 H     337  UNL337      0.0521
   2022 H           9.4238    7.6843   14.3210 H     337  UNL337      0.2090
   2023 O          10.2844    7.3062   16.3653 O.3   338  UNL338     -0.3982
   2024 C           8.8686    7.3062   16.3653 C.3   338  UNL338      0.0330
   2025 H           8.5033    6.5372   17.0505 H     338  UNL338      0.0521
   2026 H           8.5034    7.1115   15.3540 H     338  UNL338      0.0521
   2027 H           8.5133    8.2848   16.6965 H     338  UNL338      0.0521
   2028 H          10.5701    6.4258   16.0673 H     338  UNL338      0.2090
   2029 O           7.9423    7.0058   18.4733 O.3   339  UNL339     -0.3982
   2030 C           6.5265    7.0058   18.4733 C.3   339  UNL339      0.0330
   2031 H           6.1612    8.0150   18.6793 H     339  UNL339      0.0521
   2032 H           6.1613    6.3121   19.2345 H     339  UNL339      0.0521
   2033 H           6.1712    6.6855   17.4911 H     339  UNL339      0.0521
   2034 H           8.2280    7.2940   19.3570 H     339  UNL339      0.2090
   2035 O           9.8818    7.1377   21.1426 O.3   340  UNL340     -0.3982
   2036 C           8.4660    7.1377   21.1426 C.3   340  UNL340      0.0330
   2037 H           8.1007    6.3346   20.4977 H     340  UNL340      0.0521
   2038 H           8.1008    8.1028   20.7832 H     340  UNL340      0.0521
   2039 H           8.1107    6.9731   22.1626 H     340  UNL340      0.0521
   2040 H          10.1675    7.2858   20.2250 H     340  UNL340      0.2090
   2041 O           9.9423    7.3062   24.4274 O.3   341  UNL341     -0.3982
   2042 C           8.5265    7.3062   24.4274 C.3   341  UNL341      0.0330
   2043 H           8.1612    6.5372   25.1126 H     341  UNL341      0.0521
   2044 H           8.1613    7.1115   23.4161 H     341  UNL341      0.0521
   2045 H           8.1712    8.2848   24.7586 H     341  UNL341      0.0521
   2046 H          10.2280    6.4258   24.1294 H     341  UNL341      0.2090
   2047 O          10.0765    9.4719    0.0375 O.3   342  UNL342     -0.3982
   2048 C           8.6607    9.4719    0.0375 C.3   342  UNL342      0.0330
   2049 H           8.2954    9.3832   -0.9886 H     342  UNL342      0.0521
   2050 H           8.2955   10.3986    0.4868 H     342  UNL342      0.0521
   2051 H           8.3054    8.6209    0.6233 H     342  UNL342      0.0521
   2052 H          10.3622   10.2375   -0.4895 H     342  UNL342      0.2090
   2053 O          10.0160    9.7416    2.3379 O.3   343  UNL343     -0.3982
   2054 C           8.6002    9.7416    2.3379 C.3   343  UNL343      0.0330
   2055 H           8.2349    8.9726    3.0231 H     343  UNL343      0.0521
   2056 H           8.2350    9.5469    1.3266 H     343  UNL343      0.0521
   2057 H           8.2449   10.7202    2.6691 H     343  UNL343      0.0521
   2058 H          10.3017    8.8612    2.0399 H     343  UNL343      0.2090
   2059 O          10.0149    9.3575    5.9261 O.3   344  UNL344     -0.3982
   2060 C           8.5991    9.3575    5.9261 C.3   344  UNL344      0.0330
   2061 H           8.2338   10.3146    6.3066 H     344  UNL344      0.0521
   2062 H           8.2339    8.5406    6.5533 H     344  UNL344      0.0521
   2063 H           8.2438    9.2151    4.9029 H     344  UNL344      0.0521
   2064 H          10.3006    9.4855    6.8468 H     344  UNL344      0.2090
   2065 O           9.1744    9.7858    7.1900 O.3   345  UNL345     -0.3982
   2066 C           7.7586    9.7858    7.1900 C.3   345  UNL345      0.0330
   2067 H           7.3933    9.2406    8.0639 H     345  UNL345      0.0521
   2068 H           7.3934    9.3145    6.2744 H     345  UNL345      0.0521
   2069 H           7.4033   10.8181    7.2326 H     345  UNL345      0.0521
   2070 H           9.4601    8.8571    7.1518 H     345  UNL345      0.2090
   2071 O           9.5441    9.4719   12.2611 O.3   346  UNL346     -0.3982
   2072 C           8.8880    9.4719   11.0065 C.3   346  UNL346      0.0330
   2073 H           9.6281    9.3832   10.2073 H     346  UNL346      0.0521
   2074 H           8.3207   10.3986   10.8910 H     346  UNL346      0.0521
   2075 H           8.2043    8.6209   10.9630 H     346  UNL346      0.0521
   2076 H          10.1434   10.2375   12.2701 H     346  UNL346      0.2090
   2077 O           9.0523    7.5832   11.6895 O.3   347  UNL347     -0.3982
   2078 C           7.6365    7.5832   11.6895 C.3   347  UNL347      0.0330
   2079 H           7.2712    6.8142   12.3747 H     347  UNL347      0.0521
   2080 H           7.2713    7.3885   10.6782 H     347  UNL347      0.0521
   2081 H           7.2812    8.5618   12.0207 H     347  UNL347      0.0521
   2082 H           9.3380    6.7028   11.3915 H     347  UNL347      0.2090
   2083 O          10.0160    9.7416   14.0274 O.3   348  UNL348     -0.3982
   2084 C           8.6002    9.7416   14.0274 C.3   348  UNL348      0.0330
   2085 H           8.2349    8.9726   14.7126 H     348  UNL348      0.0521
   2086 H           8.2350    9.5469   13.0161 H     348  UNL348      0.0521
   2087 H           8.2449   10.7202   14.3586 H     348  UNL348      0.0521
   2088 H          10.3017    8.8612   13.7294 H     348  UNL348      0.2090
   2089 O           9.7641    9.4719   19.2385 O.3   349  UNL349     -0.3982
   2090 C           9.1080    9.4719   17.9839 C.3   349  UNL349      0.0330
   2091 H           9.8481    9.3832   17.1847 H     349  UNL349      0.0521
   2092 H           8.5407   10.3986   17.8684 H     349  UNL349      0.0521
   2093 H           8.4243    8.6209   17.9404 H     349  UNL349      0.0521
   2094 H          10.3634   10.2375   19.2475 H     349  UNL349      0.2090
   2095 O           9.0402    8.2916   18.8121 O.3   350  UNL350     -0.3982
   2096 C           7.6244    8.2916   18.8121 C.3   350  UNL350      0.0330
   2097 H           7.2591    7.5226   19.4973 H     350  UNL350      0.0521
   2098 H           7.2592    8.0969   17.8008 H     350  UNL350      0.0521
   2099 H           7.2691    9.2702   19.1433 H     350  UNL350      0.0521
   2100 H           9.3259    7.4112   18.5141 H     350  UNL350      0.2090
   2101 O          10.0523    9.7416   21.0411 O.3   351  UNL351     -0.3982
   2102 C           8.6365    9.7416   21.0411 C.3   351  UNL351      0.0330
   2103 H           8.2712    8.9726   21.7263 H     351  UNL351      0.0521
   2104 H           8.2713    9.5469   20.0298 H     351  UNL351      0.0521
   2105 H           8.2812   10.7202   21.3723 H     351  UNL351      0.0521
   2106 H          10.3380    8.8612   20.7431 H     351  UNL351      0.2090
   2107 O           9.3628    9.9019   24.3212 O.3   352  UNL352     -0.3982
   2108 C           8.8647    9.3763   23.1046 C.3   352  UNL352      0.0330
   2109 H           9.6644    8.8467   22.5808 H     352  UNL352      0.0521
   2110 H           8.4847   10.1909   22.4832 H     352  UNL352      0.0521
   2111 H           8.0525    8.6795   23.3247 H     352  UNL352      0.0521
   2112 H          10.0816   10.5162   24.0940 H     352  UNL352      0.2090
   2113 O          10.0523   12.1770   -1.0000 O.3   353  UNL353     -0.3982
   2114 C           8.6365   12.1770   -1.0000 C.3   353  UNL353      0.0330
   2115 H           8.2712   11.4080   -0.3148 H     353  UNL353      0.0521
   2116 H           8.2713   11.9823   -2.0113 H     353  UNL353      0.0521
   2117 H           8.2812   13.1556   -0.6688 H     353  UNL353      0.0521
   2118 H          10.3380   11.2966   -1.2980 H     353  UNL353      0.2090
   2119 O          10.1986   12.0878    3.3359 O.3   354  UNL354     -0.3982
   2120 C           9.5927   12.1521    4.6138 C.3   354  UNL354      0.0330
   2121 H           9.6346   11.1684    5.0879 H     354  UNL354      0.0521
   2122 H           8.5537   12.4742    4.5097 H     354  UNL354      0.0521
   2123 H          10.1357   12.8738    5.2286 H     354  UNL354      0.0521
   2124 H           9.6955   11.4401    2.8134 H     354  UNL354      0.2090
   2125 O           9.0402   10.2757    4.5686 O.3   355  UNL355     -0.3982
   2126 C           7.6244   10.2757    4.5686 C.3   355  UNL355      0.0330
   2127 H           7.2591   10.0631    5.5764 H     355  UNL355      0.0521
   2128 H           7.2592    9.5191    3.8699 H     355  UNL355      0.0521
   2129 H           7.2691   11.2600    4.2548 H     355  UNL355      0.0521
   2130 H           9.3259    9.3902    4.8509 H     355  UNL355      0.2090
   2131 O          10.1128   11.9855    6.8201 O.3   356  UNL356     -0.3982
   2132 C           8.6970   11.9855    6.8201 C.3   356  UNL356      0.0330
   2133 H           8.3317   12.9947    7.0261 H     356  UNL356      0.0521
   2134 H           8.3318   11.2918    7.5813 H     356  UNL356      0.0521
   2135 H           8.3417   11.6652    5.8379 H     356  UNL356      0.0521
   2136 H          10.3985   12.2737    7.7038 H     356  UNL356      0.2090
   2137 O           9.1858   10.9943    9.3516 O.3   357  UNL357     -0.3982
   2138 C           8.9513   12.3905    9.3516 C.3   357  UNL357      0.0330
   2139 H           8.1324   12.6235   10.0368 H     357  UNL357      0.0521
   2140 H           8.6988   12.7185    8.3403 H     357  UNL357      0.0521
   2141 H           9.8576   12.9030    9.6828 H     357  UNL357      0.0521
   2142 H           8.3648   10.5667    9.0536 H     357  UNL357      0.2090
   2143 O          10.0523   11.9855   11.4959 O.3   358  UNL358     -0.3982
   2144 C           8.6365   11.9855   11.4959 C.3   358  UNL358      0.0330
   2145 H           8.2712   12.9947   11.7019 H     358  UNL358      0.0521
   2146 H           8.2713   11.2918   12.2571 H     358  UNL358      0.0521
   2147 H           8.2812   11.6652   10.5137 H     358  UNL358      0.0521
   2148 H          10.3380   12.2737   12.3796 H     358  UNL358      0.2090
   2149 O          10.1986   11.9073   16.1012 O.3   359  UNL359     -0.3982
   2150 C           8.7828   11.9073   16.1012 C.3   359  UNL359      0.0330
   2151 H           8.4175   11.8186   15.0751 H     359  UNL359      0.0521
   2152 H           8.4176   12.8340   16.5505 H     359  UNL359      0.0521
   2153 H           8.4275   11.0563   16.6870 H     359  UNL359      0.0521
   2154 H          10.4843   12.6729   15.5742 H     359  UNL359      0.2090
   2155 O           9.0523   10.1044   16.3653 O.3   360  UNL360     -0.3982
   2156 C           7.6365   10.1044   16.3653 C.3   360  UNL360      0.0330
   2157 H           7.2712    9.3354   17.0505 H     360  UNL360      0.0521
   2158 H           7.2713    9.9097   15.3540 H     360  UNL360      0.0521
   2159 H           7.2812   11.0830   16.6965 H     360  UNL360      0.0521
   2160 H           9.3380    9.2240   16.0673 H     360  UNL360      0.2090
   2161 O          10.0160   11.9855   18.5096 O.3   361  UNL361     -0.3982
   2162 C           8.6002   11.9855   18.5096 C.3   361  UNL361      0.0330
   2163 H           8.2349   12.9947   18.7156 H     361  UNL361      0.0521
   2164 H           8.2350   11.2918   19.2708 H     361  UNL361      0.0521
   2165 H           8.2449   11.6652   17.5274 H     361  UNL361      0.0521
   2166 H          10.3017   12.2737   19.3933 H     361  UNL361      0.2090
   2167 O          10.0523   11.9073   22.8960 O.3   362  UNL362     -0.3982
   2168 C           8.6365   11.9073   22.8960 C.3   362  UNL362      0.0330
   2169 H           8.2712   11.8186   21.8699 H     362  UNL362      0.0521
   2170 H           8.2713   12.8340   23.3453 H     362  UNL362      0.0521
   2171 H           8.2812   11.0563   23.4818 H     362  UNL362      0.0521
   2172 H          10.3380   12.6729   22.3690 H     362  UNL362      0.2090
   2173 O           9.0644   12.1410   24.4373 O.3   363  UNL363     -0.3982
   2174 C           7.6486   12.1410   24.4373 C.3   363  UNL363      0.0330
   2175 H           7.2833   11.1494   24.7159 H     363  UNL363      0.0521
   2176 H           7.2834   12.4095   23.4431 H     363  UNL363      0.0521
   2177 H           7.2933   12.8752   25.1641 H     363  UNL363      0.0521
   2178 H           9.3501   11.4805   23.7834 H     363  UNL363      0.2090
   2179 O          10.0523   14.6124    0.0000 O.3   364  UNL364     -0.3982
   2180 C           8.6365   14.6124    0.0000 C.3   364  UNL364      0.0330
   2181 H           8.2712   13.8434    0.6852 H     364  UNL364      0.0521
   2182 H           8.2713   14.4177   -1.0113 H     364  UNL364      0.0521
   2183 H           8.2812   15.5910    0.3312 H     364  UNL364      0.0521
   2184 H          10.3380   13.7320   -0.2980 H     364  UNL364      0.2090
   2185 O           8.7831   13.4007    2.3379 O.3   365  UNL365     -0.3982
   2186 C           9.2312   14.7437    2.3379 C.3   365  UNL365      0.0330
   2187 H           8.6174   15.3336    3.0231 H     365  UNL365      0.0521
   2188 H           9.1621   15.1517    1.3266 H     365  UNL365      0.0521
   2189 H          10.2720   14.7710    2.6691 H     365  UNL365      0.0521
   2190 H           7.8576   13.4083    2.0399 H     365  UNL365      0.2090
   2191 O          10.0523   14.6124    4.6758 O.3   366  UNL366     -0.3982
   2192 C           8.6365   14.6124    4.6758 C.3   366  UNL366      0.0330
   2193 H           8.2712   13.8434    5.3610 H     366  UNL366      0.0521
   2194 H           8.2713   14.4177    3.6645 H     366  UNL366      0.0521
   2195 H           8.2812   15.5910    5.0070 H     366  UNL366      0.0521
   2196 H          10.3380   13.7320    4.3778 H     366  UNL366      0.2090
   2197 O           7.8081   14.5523    6.8186 O.3   367  UNL367     -0.3982
   2198 C           6.3923   14.5523    6.8186 C.3   367  UNL367      0.0330
   2199 H           6.0270   15.1007    7.6905 H     367  UNL367      0.0521
   2200 H           6.0271   13.5227    6.8432 H     367  UNL367      0.0521
   2201 H           6.0370   15.0410    5.9084 H     367  UNL367      0.0521
   2202 H           8.0938   14.1126    7.6375 H     367  UNL367      0.2090
   2203 O           9.1491   14.3826    9.1889 O.3   368  UNL368     -0.3982
   2204 C           7.7333   14.3826    9.1889 C.3   368  UNL368      0.0330
   2205 H           7.3680   15.4093    9.1069 H     368  UNL368      0.0521
   2206 H           7.3681   13.9273   10.1126 H     368  UNL368      0.0521
   2207 H           7.3780   13.8024    8.3341 H     368  UNL368      0.0521
   2208 H           9.4348   14.9046    9.9580 H     368  UNL368      0.2090
   2209 O          10.1249   14.6124   11.6895 O.3   369  UNL369     -0.3982
   2210 C           8.7091   14.6124   11.6895 C.3   369  UNL369      0.0330
   2211 H           8.3438   13.8434   12.3747 H     369  UNL369      0.0521
   2212 H           8.3439   14.4177   10.6782 H     369  UNL369      0.0521
   2213 H           8.3538   15.5910   12.0207 H     369  UNL369      0.0521
   2214 H          10.4106   13.7320   11.3915 H     369  UNL369      0.2090
   2215 O          10.1139   14.7103   14.5874 O.3   370  UNL370     -0.3982
   2216 C           8.6981   14.7103   14.5874 C.3   370  UNL370      0.0330
   2217 H           8.3328   13.9413   15.2726 H     370  UNL370      0.0521
   2218 H           8.3329   14.5156   13.5761 H     370  UNL370      0.0521
   2219 H           8.3428   15.6889   14.9186 H     370  UNL370      0.0521
   2220 H          10.3996   13.8299   14.2894 H     370  UNL370      0.2090
   2221 O           9.0523   14.5885   16.4357 O.3   371  UNL371     -0.3982
   2222 C           7.6365   14.5885   16.4357 C.3   371  UNL371      0.0330
   2223 H           7.2712   13.5969   16.7143 H     371  UNL371      0.0521
   2224 H           7.2713   14.8570   15.4415 H     371  UNL371      0.0521
   2225 H           7.2812   15.3227   17.1625 H     371  UNL371      0.0521
   2226 H           9.3380   13.9280   15.7818 H     371  UNL371      0.2090
   2227 O          10.1007   14.6124   18.7032 O.3   372  UNL372     -0.3982
   2228 C           8.6849   14.6124   18.7032 C.3   372  UNL372      0.0330
   2229 H           8.3196   13.8434   19.3884 H     372  UNL372      0.0521
   2230 H           8.3197   14.4177   17.6919 H     372  UNL372      0.0521
   2231 H           8.3296   15.5910   19.0344 H     372  UNL372      0.0521
   2232 H          10.3864   13.7320   18.4052 H     372  UNL372      0.2090
   2233 O          10.1007   14.6124   22.8585 O.3   373  UNL373     -0.3982
   2234 C           8.6849   14.6124   22.8585 C.3   373  UNL373      0.0330
   2235 H           8.3196   13.8434   23.5437 H     373  UNL373      0.0521
   2236 H           8.3197   14.4177   21.8472 H     373  UNL373      0.0521
   2237 H           8.3296   15.5910   23.1897 H     373  UNL373      0.0521
   2238 H          10.3864   13.7320   22.5605 H     373  UNL373      0.2090
   2239 O           9.0523   14.6124   24.4032 O.3   374  UNL374     -0.3982
   2240 C           7.6365   14.6124   24.4032 C.3   374  UNL374      0.0330
   2241 H           7.2712   13.8434   25.0884 H     374  UNL374      0.0521
   2242 H           7.2713   14.4177   23.3919 H     374  UNL374      0.0521
   2243 H           7.2812   15.5910   24.7344 H     374  UNL374      0.0521
   2244 H           9.3380   13.7320   24.1052 H     374  UNL374      0.2090
   2245 O           9.0402   17.0863   -1.3740 O.3   375  UNL375     -0.3982
   2246 C           7.6244   17.0863   -1.3740 C.3   375  UNL375      0.0330
   2247 H           7.2591   17.3371   -0.3751 H     375  UNL375      0.0521
   2248 H           7.2592   16.0999   -1.6701 H     375  UNL375      0.0521
   2249 H           7.2691   17.8332   -2.0878 H     375  UNL375      0.0521
   2250 H           9.3259   16.4142   -0.7319 H     375  UNL375      0.2090
   2251 O          10.1623   17.0357    1.3279 O.3   376  UNL376     -0.3982
   2252 C           8.7465   17.0357    1.3279 C.3   376  UNL376      0.0330
   2253 H           8.3812   16.2667    2.0131 H     376  UNL376      0.0521
   2254 H           8.3813   16.8410    0.3166 H     376  UNL376      0.0521
   2255 H           8.3912   18.0143    1.6591 H     376  UNL376      0.0521
   2256 H          10.4480   16.1553    1.0299 H     376  UNL376      0.2090
   2257 O           9.2938   17.8258    6.2813 O.3   377  UNL377     -0.3982
   2258 C           8.6377   16.7140    6.8626 C.3   377  UNL377      0.0330
   2259 H           9.2411   16.3233    7.6858 H     377  UNL377      0.0521
   2260 H           8.4903   15.9401    6.1055 H     377  UNL377      0.0521
   2261 H           7.6665   17.0352    7.2461 H     377  UNL377      0.0521
   2262 H          10.1518   17.5102    5.9502 H     377  UNL377      0.2090
   2263 O           8.9434   15.4999    7.1226 O.3   378  UNL378     -0.3982
   2264 C           7.5276   15.4999    7.1226 C.3   378  UNL378      0.0330
   2265 H           7.1623   14.7309    7.8078 H     378  UNL378      0.0521
   2266 H           7.1624   15.3052    6.1113 H     378  UNL378      0.0521
   2267 H           7.1723   16.4785    7.4538 H     378  UNL378      0.0521
   2268 H           9.2291   14.6195    6.8246 H     378  UNL378      0.2090
   2269 O          10.1007   17.0100    9.1939 O.3   379  UNL379     -0.3982
   2270 C           8.6849   17.0100    9.1939 C.3   379  UNL379      0.0330
   2271 H           8.3196   17.2950   10.1836 H     379  UNL379      0.0521
   2272 H           8.3197   16.0140    8.9319 H     379  UNL379      0.0521
   2273 H           8.3296   17.7320    8.4549 H     379  UNL379      0.0521
   2274 H          10.3864   16.3604    9.8587 H     379  UNL379      0.2090
   2275 O           9.0523   16.7781   11.7270 O.3   380  UNL380     -0.3982
   2276 C           7.6365   16.7781   11.7270 C.3   380  UNL380      0.0330
   2277 H           7.2712   16.6894   10.7009 H     380  UNL380      0.0521
   2278 H           7.2713   17.7048   12.1763 H     380  UNL380      0.0521
   2279 H           7.2812   15.9271   12.3128 H     380  UNL380      0.0521
   2280 H           9.3380   17.5437   11.2000 H     380  UNL380      0.2090
   2281 O           9.9060   16.9756   13.8444 O.3   381  UNL381     -0.3982
   2282 C           8.4902   16.9756   13.8444 C.3   381  UNL381      0.0330
   2283 H           8.1249   17.5240   14.7163 H     381  UNL381      0.0521
   2284 H           8.1250   15.9460   13.8690 H     381  UNL381      0.0521
   2285 H           8.1349   17.4643   12.9342 H     381  UNL381      0.0521
   2286 H          10.1917   16.5359   14.6633 H     381  UNL381      0.2090
   2287 O          10.1986   17.0478   16.3653 O.3   382  UNL382     -0.3982
   2288 C           8.7828   17.0478   16.3653 C.3   382  UNL382      0.0330
   2289 H           8.4175   16.2788   17.0505 H     382  UNL382      0.0521
   2290 H           8.4176   16.8531   15.3540 H     382  UNL382      0.0521
   2291 H           8.4275   18.0264   16.6965 H     382  UNL382      0.0521
   2292 H          10.4843   16.1674   16.0673 H     382  UNL382      0.2090
   2293 O           7.2349   16.8563   18.5096 O.3   383  UNL383     -0.3982
   2294 C           5.8191   16.8563   18.5096 C.3   383  UNL383      0.0330
   2295 H           5.4538   17.8655   18.7156 H     383  UNL383      0.0521
   2296 H           5.4539   16.1626   19.2708 H     383  UNL383      0.0521
   2297 H           5.4638   16.5360   17.5274 H     383  UNL383      0.0521
   2298 H           7.5206   17.1445   19.3933 H     383  UNL383      0.2090
   2299 O           8.2391   17.6802   21.0411 O.3   384  UNL384     -0.3982
   2300 C           9.0864   16.5460   21.0411 C.3   384  UNL384      0.0330
   2301 H           9.9211   16.7135   21.7263 H     384  UNL384      0.0521
   2302 H           9.4609   16.3699   20.0298 H     384  UNL384      0.0521
   2303 H           8.5150   15.6757   21.3723 H     384  UNL384      0.0521
   2304 H           8.7734   18.4360   20.7431 H     384  UNL384      0.2090
   2305 O          10.0523   17.0478   24.3790 O.3   385  UNL385     -0.3982
   2306 C           8.6365   17.0478   24.3790 C.3   385  UNL385      0.0330
   2307 H           8.2712   16.2788   25.0642 H     385  UNL385      0.0521
   2308 H           8.2713   16.8531   23.3677 H     385  UNL385      0.0521
   2309 H           8.2812   18.0264   24.7102 H     385  UNL385      0.0521
   2310 H          10.3380   16.1674   24.0810 H     385  UNL385      0.2090
   2311 O          10.0523   20.4832   -1.0000 O.3   386  UNL386     -0.3982
   2312 C           8.6365   20.4832   -1.0000 C.3   386  UNL386      0.0330
   2313 H           8.2712   19.7142   -0.3148 H     386  UNL386      0.0521
   2314 H           8.2713   20.2885   -2.0113 H     386  UNL386      0.0521
   2315 H           8.2812   21.4618   -0.6688 H     386  UNL386      0.0521
   2316 H          10.3380   19.6028   -1.2980 H     386  UNL386      0.2090
   2317 O          10.1141   20.2236    2.0048 O.3   387  UNL387     -0.3982
   2318 C           8.7289   20.4630    2.1734 C.3   387  UNL387      0.0330
   2319 H           8.5677   21.5144    2.4239 H     387  UNL387      0.0521
   2320 H           8.3423   19.8240    2.9711 H     387  UNL387      0.0521
   2321 H           8.2118   20.2296    1.2398 H     387  UNL387      0.0521
   2322 H          10.5461   20.4392    2.8489 H     387  UNL387      0.2090
   2323 O           8.6214   19.3234    4.6758 O.3   388  UNL388     -0.3982
   2324 C           9.2558   20.5891    4.6758 C.3   388  UNL388      0.0330
   2325 H           8.7320   21.2603    5.3610 H     388  UNL388      0.0521
   2326 H           9.2454   21.0028    3.6645 H     388  UNL388      0.0521
   2327 H          10.2899   20.4683    5.0070 H     388  UNL388      0.0521
   2328 H           7.7063   19.4625    4.3778 H     388  UNL388      0.2090
   2329 O           9.6667   20.1513    6.7517 O.3   389  UNL389     -0.3982
   2330 C           8.6728   19.2237    7.1469 C.3   389  UNL389      0.0330
   2331 H           9.1444   18.3733    7.6456 H     389  UNL389      0.0521
   2332 H           8.1204   18.8836    6.2676 H     389  UNL389      0.0521
   2333 H           7.9847   19.7137    7.8397 H     389  UNL389      0.0521
   2334 H          10.2619   19.6882    6.1379 H     389  UNL389      0.2090
   2335 O           8.6214   19.3113    9.3516 O.3   390  UNL390     -0.3982
   2336 C           9.2558   20.5770    9.3516 C.3   390  UNL390      0.0330
   2337 H           8.7320   21.2482   10.0368 H     390  UNL390      0.0521
   2338 H           9.2454   20.9907    8.3403 H     390  UNL390      0.0521
   2339 H          10.2899   20.4562    9.6828 H     390  UNL390      0.0521
   2340 H           7.7063   19.4504    9.0536 H     390  UNL390      0.2090
   2341 O          10.0523   20.4832   11.6895 O.3   391  UNL391     -0.3982
   2342 C           8.6365   20.4832   11.6895 C.3   391  UNL391      0.0330
   2343 H           8.2712   19.7142   12.3747 H     391  UNL391      0.0521
   2344 H           8.2713   20.2885   10.6782 H     391  UNL391      0.0521
   2345 H           8.2812   21.4618   12.0207 H     391  UNL391      0.0521
   2346 H          10.3380   19.6028   11.3915 H     391  UNL391      0.2090
   2347 O           9.0523   19.2135   14.0649 O.3   392  UNL392     -0.3982
   2348 C           7.6365   19.2135   14.0649 C.3   392  UNL392      0.0330
   2349 H           7.2712   19.1248   13.0388 H     392  UNL392      0.0521
   2350 H           7.2713   20.1402   14.5142 H     392  UNL392      0.0521
   2351 H           7.2812   18.3625   14.6507 H     392  UNL392      0.0521
   2352 H           9.3380   19.9791   13.5379 H     392  UNL392      0.2090
   2353 O           9.0523   19.2043   16.2453 O.3   393  UNL393     -0.3982
   2354 C           7.6365   19.2043   16.2453 C.3   393  UNL393      0.0330
   2355 H           7.2712   20.0725   15.6912 H     393  UNL393      0.0521
   2356 H           7.2713   19.2356   17.2747 H     393  UNL393      0.0521
   2357 H           7.2812   18.2909   15.7627 H     393  UNL393      0.0521
   2358 H           9.3380   20.0261   16.6796 H     393  UNL393      0.2090
   2359 O           7.9368   20.2125   18.7032 O.3   394  UNL394     -0.3982
   2360 C           9.3524   20.2368   18.7032 C.3   394  UNL394      0.0330
   2361 H           9.7045   21.0120   19.3884 H     394  UNL394      0.0521
   2362 H           9.7142   20.4378   17.6919 H     394  UNL394      0.0521
   2363 H           9.7245   19.2645   19.0344 H     394  UNL394      0.0521
   2364 H           7.6361   21.0879   18.4052 H     394  UNL394      0.2090
   2365 O          10.0765   20.4832   21.0411 O.3   395  UNL395     -0.3982
   2366 C           8.6607   20.4832   21.0411 C.3   395  UNL395      0.0330
   2367 H           8.2954   19.7142   21.7263 H     395  UNL395      0.0521
   2368 H           8.2955   20.2885   20.0298 H     395  UNL395      0.0521
   2369 H           8.3054   21.4618   21.3723 H     395  UNL395      0.0521
   2370 H          10.3622   19.6028   20.7431 H     395  UNL395      0.2090
   2371 O           9.0523   20.5558   24.3427 O.3   396  UNL396     -0.3982
   2372 C           7.6365   20.5558   24.3427 C.3   396  UNL396      0.0330
   2373 H           7.2712   19.7868   25.0279 H     396  UNL396      0.0521
   2374 H           7.2713   20.3611   23.3314 H     396  UNL396      0.0521
   2375 H           7.2812   21.5344   24.6739 H     396  UNL396      0.0521
   2376 H           9.3380   19.6754   24.0447 H     396  UNL396      0.2090
@<TRIPOS>BOND
     1     1     2    1
     2     1     6    1
     3     2     3    1
     4     2     4    1
     5     2     5    1
     6     7     8    1
     7     7    12    1
     8     8     9    1
     9     8    10    1
    10     8    11    1
    11    13    14    1
    12    13    18    1
    13    14    15    1
    14    14    16    1
    15    14    17    1
    16    19    20    1
    17    19    24    1
    18    20    21    1
    19    20    22    1
    20    20    23    1
    21    25    26    1
    22    25    30    1
    23    26    27    1
    24    26    28    1
    25    26    29    1
    26    31    32    1
    27    31    36    1
    28    32    33    1
    29    32    34    1
    30    32    35    1
    31    37    38    1
    32    37    42    1
    33    38    39    1
    34    38    40    1
    35    38    41    1
    36    43    44    1
    37    43    48    1
    38    44    45    1
    39    44    46    1
    40    44    47    1
    41    49    50    1
    42    49    54    1
    43    50    51    1
    44    50    52    1
    45    50    53    1
    46    55    56    1
    47    55    60    1
    48    56    57    1
    49    56    58    1
    50    56    59    1
    51    61    62    1
    52    61    66    1
    53    62    63    1
    54    62    64    1
    55    62    65    1
    56    67    68    1
    57    67    72    1
    58    68    69    1
    59    68    70    1
    60    68    71    1
    61    73    74    1
    62    73    78    1
    63    74    75    1
    64    74    76    1
    65    74    77    1
    66    79    80    1
    67    79    84    1
    68    80    81    1
    69    80    82    1
    70    80    83    1
    71    85    86    1
    72    85    90    1
    73    86    87    1
    74    86    88    1
    75    86    89    1
    76    91    92    1
    77    91    96    1
    78    92    93    1
    79    92    94    1
    80    92    95    1
    81    97    98    1
    82    97   102    1
    83    98    99    1
    84    98   100    1
    85    98   101    1
    86   103   104    1
    87   103   108    1
    88   104   105    1
    89   104   106    1
    90   104   107    1
    91   109   110    1
    92   109   114    1
    93   110   111    1
    94   110   112    1
    95   110   113    1
    96   115   116    1
    97   115   120    1
    98   116   117    1
    99   116   118    1
   100   116   119    1
   101   121   122    1
   102   121   126    1
   103   122   123    1
   104   122   124    1
   105   122   125    1
   106   127   128    1
   107   127   132    1
   108   128   129    1
   109   128   130    1
   110   128   131    1
   111   133   134    1
   112   133   138    1
   113   134   135    1
   114   134   136    1
   115   134   137    1
   116   139   140    1
   117   139   144    1
   118   140   141    1
   119   140   142    1
   120   140   143    1
   121   145   146    1
   122   145   150    1
   123   146   147    1
   124   146   148    1
   125   146   149    1
   126   151   152    1
   127   151   156    1
   128   152   153    1
   129   152   154    1
   130   152   155    1
   131   157   158    1
   132   157   162    1
   133   158   159    1
   134   158   160    1
   135   158   161    1
   136   163   164    1
   137   163   168    1
   138   164   165    1
   139   164   166    1
   140   164   167    1
   141   169   170    1
   142   169   174    1
   143   170   171    1
   144   170   172    1
   145   170   173    1
   146   175   176    1
   147   175   180    1
   148   176   177    1
   149   176   178    1
   150   176   179    1
   151   181   182    1
   152   181   186    1
   153   182   183    1
   154   182   184    1
   155   182   185    1
   156   187   188    1
   157   187   192    1
   158   188   189    1
   159   188   190    1
   160   188   191    1
   161   193   194    1
   162   193   198    1
   163   194   195    1
   164   194   196    1
   165   194   197    1
   166   199   200    1
   167   199   204    1
   168   200   201    1
   169   200   202    1
   170   200   203    1
   171   205   206    1
   172   205   210    1
   173   206   207    1
   174   206   208    1
   175   206   209    1
   176   211   212    1
   177   211   216    1
   178   212   213    1
   179   212   214    1
   180   212   215    1
   181   217   218    1
   182   217   222    1
   183   218   219    1
   184   218   220    1
   185   218   221    1
   186   223   224    1
   187   223   228    1
   188   224   225    1
   189   224   226    1
   190   224   227    1
   191   229   230    1
   192   229   234    1
   193   230   231    1
   194   230   232    1
   195   230   233    1
   196   235   236    1
   197   235   240    1
   198   236   237    1
   199   236   238    1
   200   236   239    1
   201   241   242    1
   202   241   246    1
   203   242   243    1
   204   242   244    1
   205   242   245    1
   206   247   248    1
   207   247   252    1
   208   248   249    1
   209   248   250    1
   210   248   251    1
   211   253   254    1
   212   253   258    1
   213   254   255    1
   214   254   256    1
   215   254   257    1
   216   259   260    1
   217   259   264    1
   218   260   261    1
   219   260   262    1
   220   260   263    1
   221   265   266    1
   222   265   270    1
   223   266   267    1
   224   266   268    1
   225   266   269    1
   226   271   272    1
   227   271   276    1
   228   272   273    1
   229   272   274    1
   230   272   275    1
   231   277   278    1
   232   277   282    1
   233   278   279    1
   234   278   280    1
   235   278   281    1
   236   283   284    1
   237   283   288    1
   238   284   285    1
   239   284   286    1
   240   284   287    1
   241   289   290    1
   242   289   294    1
   243   290   291    1
   244   290   292    1
   245   290   293    1
   246   295   296    1
   247   295   300    1
   248   296   297    1
   249   296   298    1
   250   296   299    1
   251   301   302    1
   252   301   306    1
   253   302   303    1
   254   302   304    1
   255   302   305    1
   256   307   308    1
   257   307   312    1
   258   308   309    1
   259   308   310    1
   260   308   311    1
   261   313   314    1
   262   313   318    1
   263   314   315    1
   264   314   316    1
   265   314   317    1
   266   319   320    1
   267   319   324    1
   268   320   321    1
   269   320   322    1
   270   320   323    1
   271   325   326    1
   272   325   330    1
   273   326   327    1
   274   326   328    1
   275   326   329    1
   276   331   332    1
   277   331   336    1
   278   332   333    1
   279   332   334    1
   280   332   335    1
   281   337   338    1
   282   337   342    1
   283   338   339    1
   284   338   340    1
   285   338   341    1
   286   343   344    1
   287   343   348    1
   288   344   345    1
   289   344   346    1
   290   344   347    1
   291   349   350    1
   292   349   354    1
   293   350   351    1
   294   350   352    1
   295   350   353    1
   296   355   356    1
   297   355   360    1
   298   356   357    1
   299   356   358    1
   300   356   359    1
   301   361   362    1
   302   361   366    1
   303   362   363    1
   304   362   364    1
   305   362   365    1
   306   367   368    1
   307   367   372    1
   308   368   369    1
   309   368   370    1
   310   368   371    1
   311   373   374    1
   312   373   378    1
   313   374   375    1
   314   374   376    1
   315   374   377    1
   316   379   380    1
   317   379   384    1
   318   380   381    1
   319   380   382    1
   320   380   383    1
   321   385   386    1
   322   385   390    1
   323   386   387    1
   324   386   388    1
   325   386   389    1
   326   391   392    1
   327   391   396    1
   328   392   393    1
   329   392   394    1
   330   392   395    1
   331   397   398    1
   332   397   402    1
   333   398   399    1
   334   398   400    1
   335   398   401    1
   336   403   404    1
   337   403   408    1
   338   404   405    1
   339   404   406    1
   340   404   407    1
   341   409   410    1
   342   409   414    1
   343   410   411    1
   344   410   412    1
   345   410   413    1
   346   415   416    1
   347   415   420    1
   348   416   417    1
   349   416   418    1
   350   416   419    1
   351   421   422    1
   352   421   426    1
   353   422   423    1
   354   422   424    1
   355   422   425    1
   356   427   428    1
   357   427   432    1
   358   428   429    1
   359   428   430    1
   360   428   431    1
   361   433   434    1
   362   433   438    1
   363   434   435    1
   364   434   436    1
   365   434   437    1
   366   439   440    1
   367   439   444    1
   368   440   441    1
   369   440   442    1
   370   440   443    1
   371   445   446    1
   372   445   450    1
   373   446   447    1
   374   446   448    1
   375   446   449    1
   376   451   452    1
   377   451   456    1
   378   452   453    1
   379   452   454    1
   380   452   455    1
   381   457   458    1
   382   457   462    1
   383   458   459    1
   384   458   460    1
   385   458   461    1
   386   463   464    1
   387   463   468    1
   388   464   465    1
   389   464   466    1
   390   464   467    1
   391   469   470    1
   392   469   474    1
   393   470   471    1
   394   470   472    1
   395   470   473    1
   396   475   476    1
   397   475   480    1
   398   476   477    1
   399   476   478    1
   400   476   479    1
   401   481   482    1
   402   481   486    1
   403   482   483    1
   404   482   484    1
   405   482   485    1
   406   487   488    1
   407   487   492    1
   408   488   489    1
   409   488   490    1
   410   488   491    1
   411   493   494    1
   412   493   498    1
   413   494   495    1
   414   494   496    1
   415   494   497    1
   416   499   500    1
   417   499   504    1
   418   500   501    1
   419   500   502    1
   420   500   503    1
   421   505   506    1
   422   505   510    1
   423   506   507    1
   424   506   508    1
   425   506   509    1
   426   511   512    1
   427   511   516    1
   428   512   513    1
   429   512   514    1
   430   512   515    1
   431   517   518    1
   432   517   522    1
   433   518   519    1
   434   518   520    1
   435   518   521    1
   436   523   524    1
   437   523   528    1
   438   524   525    1
   439   524   526    1
   440   524   527    1
   441   529   530    1
   442   529   534    1
   443   530   531    1
   444   530   532    1
   445   530   533    1
   446   535   536    1
   447   535   540    1
   448   536   537    1
   449   536   538    1
   450   536   539    1
   451   541   542    1
   452   541   546    1
   453   542   543    1
   454   542   544    1
   455   542   545    1
   456   547   548    1
   457   547   552    1
   458   548   549    1
   459   548   550    1
   460   548   551    1
   461   553   554    1
   462   553   558    1
   463   554   555    1
   464   554   556    1
   465   554   557    1
   466   559   560    1
   467   559   564    1
   468   560   561    1
   469   560   562    1
   470   560   563    1
   471   565   566    1
   472   565   570    1
   473   566   567    1
   474   566   568    1
   475   566   569    1
   476   571   572    1
   477   571   576    1
   478   572   573    1
   479   572   574    1
   480   572   575    1
   481   577   578    1
   482   577   582    1
   483   578   579    1
   484   578   580    1
   485   578   581    1
   486   583   584    1
   487   583   588    1
   488   584   585    1
   489   584   586    1
   490   584   587    1
   491   589   590    1
   492   589   594    1
   493   590   591    1
   494   590   592    1
   495   590   593    1
   496   595   596    1
   497   595   600    1
   498   596   597    1
   499   596   598    1
   500   596   599    1
   501   601   602    1
   502   601   606    1
   503   602   603    1
   504   602   604    1
   505   602   605    1
   506   607   608    1
   507   607   612    1
   508   608   609    1
   509   608   610    1
   510   608   611    1
   511   613   614    1
   512   613   618    1
   513   614   615    1
   514   614   616    1
   515   614   617    1
   516   619   620    1
   517   619   624    1
   518   620   621    1
   519   620   622    1
   520   620   623    1
   521   625   626    1
   522   625   630    1
   523   626   627    1
   524   626   628    1
   525   626   629    1
   526   631   632    1
   527   631   636    1
   528   632   633    1
   529   632   634    1
   530   632   635    1
   531   637   638    1
   532   637   642    1
   533   638   639    1
   534   638   640    1
   535   638   641    1
   536   643   644    1
   537   643   648    1
   538   644   645    1
   539   644   646    1
   540   644   647    1
   541   649   650    1
   542   649   654    1
   543   650   651    1
   544   650   652    1
   545   650   653    1
   546   655   656    1
   547   655   660    1
   548   656   657    1
   549   656   658    1
   550   656   659    1
   551   661   662    1
   552   661   666    1
   553   662   663    1
   554   662   664    1
   555   662   665    1
   556   667   668    1
   557   667   672    1
   558   668   669    1
   559   668   670    1
   560   668   671    1
   561   673   674    1
   562   673   678    1
   563   674   675    1
   564   674   676    1
   565   674   677    1
   566   679   680    1
   567   679   684    1
   568   680   681    1
   569   680   682    1
   570   680   683    1
   571   685   686    1
   572   685   690    1
   573   686   687    1
   574   686   688    1
   575   686   689    1
   576   691   692    1
   577   691   696    1
   578   692   693    1
   579   692   694    1
   580   692   695    1
   581   697   698    1
   582   697   702    1
   583   698   699    1
   584   698   700    1
   585   698   701    1
   586   703   704    1
   587   703   708    1
   588   704   705    1
   589   704   706    1
   590   704   707    1
   591   709   710    1
   592   709   714    1
   593   710   711    1
   594   710   712    1
   595   710   713    1
   596   715   716    1
   597   715   720    1
   598   716   717    1
   599   716   718    1
   600   716   719    1
   601   721   722    1
   602   721   726    1
   603   722   723    1
   604   722   724    1
   605   722   725    1
   606   727   728    1
   607   727   732    1
   608   728   729    1
   609   728   730    1
   610   728   731    1
   611   733   734    1
   612   733   738    1
   613   734   735    1
   614   734   736    1
   615   734   737    1
   616   739   740    1
   617   739   744    1
   618   740   741    1
   619   740   742    1
   620   740   743    1
   621   745   746    1
   622   745   750    1
   623   746   747    1
   624   746   748    1
   625   746   749    1
   626   751   752    1
   627   751   756    1
   628   752   753    1
   629   752   754    1
   630   752   755    1
   631   757   758    1
   632   757   762    1
   633   758   759    1
   634   758   760    1
   635   758   761    1
   636   763   764    1
   637   763   768    1
   638   764   765    1
   639   764   766    1
   640   764   767    1
   641   769   770    1
   642   769   774    1
   643   770   771    1
   644   770   772    1
   645   770   773    1
   646   775   776    1
   647   775   780    1
   648   776   777    1
   649   776   778    1
   650   776   779    1
   651   781   782    1
   652   781   786    1
   653   782   783    1
   654   782   784    1
   655   782   785    1
   656   787   788    1
   657   787   792    1
   658   788   789    1
   659   788   790    1
   660   788   791    1
   661   793   794    1
   662   793   798    1
   663   794   795    1
   664   794   796    1
   665   794   797    1
   666   799   800    1
   667   799   804    1
   668   800   801    1
   669   800   802    1
   670   800   803    1
   671   805   806    1
   672   805   810    1
   673   806   807    1
   674   806   808    1
   675   806   809    1
   676   811   812    1
   677   811   816    1
   678   812   813    1
   679   812   814    1
   680   812   815    1
   681   817   818    1
   682   817   822    1
   683   818   819    1
   684   818   820    1
   685   818   821    1
   686   823   824    1
   687   823   828    1
   688   824   825    1
   689   824   826    1
   690   824   827    1
   691   829   830    1
   692   829   834    1
   693   830   831    1
   694   830   832    1
   695   830   833    1
   696   835   836    1
   697   835   840    1
   698   836   837    1
   699   836   838    1
   700   836   839    1
   701   841   842    1
   702   841   846    1
   703   842   843    1
   704   842   844    1
   705   842   845    1
   706   847   848    1
   707   847   852    1
   708   848   849    1
   709   848   850    1
   710   848   851    1
   711   853   854    1
   712   853   858    1
   713   854   855    1
   714   854   856    1
   715   854   857    1
   716   859   860    1
   717   859   864    1
   718   860   861    1
   719   860   862    1
   720   860   863    1
   721   865   866    1
   722   865   870    1
   723   866   867    1
   724   866   868    1
   725   866   869    1
   726   871   872    1
   727   871   876    1
   728   872   873    1
   729   872   874    1
   730   872   875    1
   731   877   878    1
   732   877   882    1
   733   878   879    1
   734   878   880    1
   735   878   881    1
   736   883   884    1
   737   883   888    1
   738   884   885    1
   739   884   886    1
   740   884   887    1
   741   889   890    1
   742   889   894    1
   743   890   891    1
   744   890   892    1
   745   890   893    1
   746   895   896    1
   747   895   900    1
   748   896   897    1
   749   896   898    1
   750   896   899    1
   751   901   902    1
   752   901   906    1
   753   902   903    1
   754   902   904    1
   755   902   905    1
   756   907   908    1
   757   907   912    1
   758   908   909    1
   759   908   910    1
   760   908   911    1
   761   913   914    1
   762   913   918    1
   763   914   915    1
   764   914   916    1
   765   914   917    1
   766   919   920    1
   767   919   924    1
   768   920   921    1
   769   920   922    1
   770   920   923    1
   771   925   926    1
   772   925   930    1
   773   926   927    1
   774   926   928    1
   775   926   929    1
   776   931   932    1
   777   931   936    1
   778   932   933    1
   779   932   934    1
   780   932   935    1
   781   937   938    1
   782   937   942    1
   783   938   939    1
   784   938   940    1
   785   938   941    1
   786   943   944    1
   787   943   948    1
   788   944   945    1
   789   944   946    1
   790   944   947    1
   791   949   950    1
   792   949   954    1
   793   950   951    1
   794   950   952    1
   795   950   953    1
   796   955   956    1
   797   955   960    1
   798   956   957    1
   799   956   958    1
   800   956   959    1
   801   961   962    1
   802   961   966    1
   803   962   963    1
   804   962   964    1
   805   962   965    1
   806   967   968    1
   807   967   972    1
   808   968   969    1
   809   968   970    1
   810   968   971    1
   811   973   974    1
   812   973   978    1
   813   974   975    1
   814   974   976    1
   815   974   977    1
   816   979   980    1
   817   979   984    1
   818   980   981    1
   819   980   982    1
   820   980   983    1
   821   985   986    1
   822   985   990    1
   823   986   987    1
   824   986   988    1
   825   986   989    1
   826   991   992    1
   827   991   996    1
   828   992   993    1
   829   992   994    1
   830   992   995    1
   831   997   998    1
   832   997  1002    1
   833   998   999    1
   834   998  1000    1
   835   998  1001    1
   836  1003  1004    1
   837  1003  1008    1
   838  1004  1005    1
   839  1004  1006    1
   840  1004  1007    1
   841  1009  1010    1
   842  1009  1014    1
   843  1010  1011    1
   844  1010  1012    1
   845  1010  1013    1
   846  1015  1016    1
   847  1015  1020    1
   848  1016  1017    1
   849  1016  1018    1
   850  1016  1019    1
   851  1021  1022    1
   852  1021  1026    1
   853  1022  1023    1
   854  1022  1024    1
   855  1022  1025    1
   856  1027  1028    1
   857  1027  1032    1
   858  1028  1029    1
   859  1028  1030    1
   860  1028  1031    1
   861  1033  1034    1
   862  1033  1038    1
   863  1034  1035    1
   864  1034  1036    1
   865  1034  1037    1
   866  1039  1040    1
   867  1039  1044    1
   868  1040  1041    1
   869  1040  1042    1
   870  1040  1043    1
   871  1045  1046    1
   872  1045  1050    1
   873  1046  1047    1
   874  1046  1048    1
   875  1046  1049    1
   876  1051  1052    1
   877  1051  1056    1
   878  1052  1053    1
   879  1052  1054    1
   880  1052  1055    1
   881  1057  1058    1
   882  1057  1062    1
   883  1058  1059    1
   884  1058  1060    1
   885  1058  1061    1
   886  1063  1064    1
   887  1063  1068    1
   888  1064  1065    1
   889  1064  1066    1
   890  1064  1067    1
   891  1069  1070    1
   892  1069  1074    1
   893  1070  1071    1
   894  1070  1072    1
   895  1070  1073    1
   896  1075  1076    1
   897  1075  1080    1
   898  1076  1077    1
   899  1076  1078    1
   900  1076  1079    1
   901  1081  1082    1
   902  1081  1086    1
   903  1082  1083    1
   904  1082  1084    1
   905  1082  1085    1
   906  1087  1088    1
   907  1087  1092    1
   908  1088  1089    1
   909  1088  1090    1
   910  1088  1091    1
   911  1093  1094    1
   912  1093  1098    1
   913  1094  1095    1
   914  1094  1096    1
   915  1094  1097    1
   916  1099  1100    1
   917  1099  1104    1
   918  1100  1101    1
   919  1100  1102    1
   920  1100  1103    1
   921  1105  1106    1
   922  1105  1110    1
   923  1106  1107    1
   924  1106  1108    1
   925  1106  1109    1
   926  1111  1112    1
   927  1111  1116    1
   928  1112  1113    1
   929  1112  1114    1
   930  1112  1115    1
   931  1117  1118    1
   932  1117  1122    1
   933  1118  1119    1
   934  1118  1120    1
   935  1118  1121    1
   936  1123  1124    1
   937  1123  1128    1
   938  1124  1125    1
   939  1124  1126    1
   940  1124  1127    1
   941  1129  1130    1
   942  1129  1134    1
   943  1130  1131    1
   944  1130  1132    1
   945  1130  1133    1
   946  1135  1136    1
   947  1135  1140    1
   948  1136  1137    1
   949  1136  1138    1
   950  1136  1139    1
   951  1141  1142    1
   952  1141  1146    1
   953  1142  1143    1
   954  1142  1144    1
   955  1142  1145    1
   956  1147  1148    1
   957  1147  1152    1
   958  1148  1149    1
   959  1148  1150    1
   960  1148  1151    1
   961  1153  1154    1
   962  1153  1158    1
   963  1154  1155    1
   964  1154  1156    1
   965  1154  1157    1
   966  1159  1160    1
   967  1159  1164    1
   968  1160  1161    1
   969  1160  1162    1
   970  1160  1163    1
   971  1165  1166    1
   972  1165  1170    1
   973  1166  1167    1
   974  1166  1168    1
   975  1166  1169    1
   976  1171  1172    1
   977  1171  1176    1
   978  1172  1173    1
   979  1172  1174    1
   980  1172  1175    1
   981  1177  1178    1
   982  1177  1182    1
   983  1178  1179    1
   984  1178  1180    1
   985  1178  1181    1
   986  1183  1184    1
   987  1183  1188    1
   988  1184  1185    1
   989  1184  1186    1
   990  1184  1187    1
   991  1189  1190    1
   992  1189  1194    1
   993  1190  1191    1
   994  1190  1192    1
   995  1190  1193    1
   996  1195  1196    1
   997  1195  1200    1
   998  1196  1197    1
   999  1196  1198    1
  1000  1196  1199    1
  1001  1201  1202    1
  1002  1201  1206    1
  1003  1202  1203    1
  1004  1202  1204    1
  1005  1202  1205    1
  1006  1207  1208    1
  1007  1207  1212    1
  1008  1208  1209    1
  1009  1208  1210    1
  1010  1208  1211    1
  1011  1213  1214    1
  1012  1213  1218    1
  1013  1214  1215    1
  1014  1214  1216    1
  1015  1214  1217    1
  1016  1219  1220    1
  1017  1219  1224    1
  1018  1220  1221    1
  1019  1220  1222    1
  1020  1220  1223    1
  1021  1225  1226    1
  1022  1225  1230    1
  1023  1226  1227    1
  1024  1226  1228    1
  1025  1226  1229    1
  1026  1231  1232    1
  1027  1231  1236    1
  1028  1232  1233    1
  1029  1232  1234    1
  1030  1232  1235    1
  1031  1237  1238    1
  1032  1237  1242    1
  1033  1238  1239    1
  1034  1238  1240    1
  1035  1238  1241    1
  1036  1243  1244    1
  1037  1243  1248    1
  1038  1244  1245    1
  1039  1244  1246    1
  1040  1244  1247    1
  1041  1249  1250    1
  1042  1249  1254    1
  1043  1250  1251    1
  1044  1250  1252    1
  1045  1250  1253    1
  1046  1255  1256    1
  1047  1255  1260    1
  1048  1256  1257    1
  1049  1256  1258    1
  1050  1256  1259    1
  1051  1261  1262    1
  1052  1261  1266    1
  1053  1262  1263    1
  1054  1262  1264    1
  1055  1262  1265    1
  1056  1267  1268    1
  1057  1267  1272    1
  1058  1268  1269    1
  1059  1268  1270    1
  1060  1268  1271    1
  1061  1273  1274    1
  1062  1273  1278    1
  1063  1274  1275    1
  1064  1274  1276    1
  1065  1274  1277    1
  1066  1279  1280    1
  1067  1279  1284    1
  1068  1280  1281    1
  1069  1280  1282    1
  1070  1280  1283    1
  1071  1285  1286    1
  1072  1285  1290    1
  1073  1286  1287    1
  1074  1286  1288    1
  1075  1286  1289    1
  1076  1291  1292    1
  1077  1291  1296    1
  1078  1292  1293    1
  1079  1292  1294    1
  1080  1292  1295    1
  1081  1297  1298    1
  1082  1297  1302    1
  1083  1298  1299    1
  1084  1298  1300    1
  1085  1298  1301    1
  1086  1303  1304    1
  1087  1303  1308    1
  1088  1304  1305    1
  1089  1304  1306    1
  1090  1304  1307    1
  1091  1309  1310    1
  1092  1309  1314    1
  1093  1310  1311    1
  1094  1310  1312    1
  1095  1310  1313    1
  1096  1315  1316    1
  1097  1315  1320    1
  1098  1316  1317    1
  1099  1316  1318    1
  1100  1316  1319    1
  1101  1321  1322    1
  1102  1321  1326    1
  1103  1322  1323    1
  1104  1322  1324    1
  1105  1322  1325    1
  1106  1327  1328    1
  1107  1327  1332    1
  1108  1328  1329    1
  1109  1328  1330    1
  1110  1328  1331    1
  1111  1333  1334    1
  1112  1333  1338    1
  1113  1334  1335    1
  1114  1334  1336    1
  1115  1334  1337    1
  1116  1339  1340    1
  1117  1339  1344    1
  1118  1340  1341    1
  1119  1340  1342    1
  1120  1340  1343    1
  1121  1345  1346    1
  1122  1345  1350    1
  1123  1346  1347    1
  1124  1346  1348    1
  1125  1346  1349    1
  1126  1351  1352    1
  1127  1351  1356    1
  1128  1352  1353    1
  1129  1352  1354    1
  1130  1352  1355    1
  1131  1357  1358    1
  1132  1357  1362    1
  1133  1358  1359    1
  1134  1358  1360    1
  1135  1358  1361    1
  1136  1363  1364    1
  1137  1363  1368    1
  1138  1364  1365    1
  1139  1364  1366    1
  1140  1364  1367    1
  1141  1369  1370    1
  1142  1369  1374    1
  1143  1370  1371    1
  1144  1370  1372    1
  1145  1370  1373    1
  1146  1375  1376    1
  1147  1375  1380    1
  1148  1376  1377    1
  1149  1376  1378    1
  1150  1376  1379    1
  1151  1381  1382    1
  1152  1381  1386    1
  1153  1382  1383    1
  1154  1382  1384    1
  1155  1382  1385    1
  1156  1387  1388    1
  1157  1387  1392    1
  1158  1388  1389    1
  1159  1388  1390    1
  1160  1388  1391    1
  1161  1393  1394    1
  1162  1393  1398    1
  1163  1394  1395    1
  1164  1394  1396    1
  1165  1394  1397    1
  1166  1399  1400    1
  1167  1399  1404    1
  1168  1400  1401    1
  1169  1400  1402    1
  1170  1400  1403    1
  1171  1405  1406    1
  1172  1405  1410    1
  1173  1406  1407    1
  1174  1406  1408    1
  1175  1406  1409    1
  1176  1411  1412    1
  1177  1411  1416    1
  1178  1412  1413    1
  1179  1412  1414    1
  1180  1412  1415    1
  1181  1417  1418    1
  1182  1417  1422    1
  1183  1418  1419    1
  1184  1418  1420    1
  1185  1418  1421    1
  1186  1423  1424    1
  1187  1423  1428    1
  1188  1424  1425    1
  1189  1424  1426    1
  1190  1424  1427    1
  1191  1429  1430    1
  1192  1429  1434    1
  1193  1430  1431    1
  1194  1430  1432    1
  1195  1430  1433    1
  1196  1435  1436    1
  1197  1435  1440    1
  1198  1436  1437    1
  1199  1436  1438    1
  1200  1436  1439    1
  1201  1441  1442    1
  1202  1441  1446    1
  1203  1442  1443    1
  1204  1442  1444    1
  1205  1442  1445    1
  1206  1447  1448    1
  1207  1447  1452    1
  1208  1448  1449    1
  1209  1448  1450    1
  1210  1448  1451    1
  1211  1453  1454    1
  1212  1453  1458    1
  1213  1454  1455    1
  1214  1454  1456    1
  1215  1454  1457    1
  1216  1459  1460    1
  1217  1459  1464    1
  1218  1460  1461    1
  1219  1460  1462    1
  1220  1460  1463    1
  1221  1465  1466    1
  1222  1465  1470    1
  1223  1466  1467    1
  1224  1466  1468    1
  1225  1466  1469    1
  1226  1471  1472    1
  1227  1471  1476    1
  1228  1472  1473    1
  1229  1472  1474    1
  1230  1472  1475    1
  1231  1477  1478    1
  1232  1477  1482    1
  1233  1478  1479    1
  1234  1478  1480    1
  1235  1478  1481    1
  1236  1483  1484    1
  1237  1483  1488    1
  1238  1484  1485    1
  1239  1484  1486    1
  1240  1484  1487    1
  1241  1489  1490    1
  1242  1489  1494    1
  1243  1490  1491    1
  1244  1490  1492    1
  1245  1490  1493    1
  1246  1495  1496    1
  1247  1495  1500    1
  1248  1496  1497    1
  1249  1496  1498    1
  1250  1496  1499    1
  1251  1501  1502    1
  1252  1501  1506    1
  1253  1502  1503    1
  1254  1502  1504    1
  1255  1502  1505    1
  1256  1507  1508    1
  1257  1507  1512    1
  1258  1508  1509    1
  1259  1508  1510    1
  1260  1508  1511    1
  1261  1513  1514    1
  1262  1513  1518    1
  1263  1514  1515    1
  1264  1514  1516    1
  1265  1514  1517    1
  1266  1519  1520    1
  1267  1519  1524    1
  1268  1520  1521    1
  1269  1520  1522    1
  1270  1520  1523    1
  1271  1525  1526    1
  1272  1525  1530    1
  1273  1526  1527    1
  1274  1526  1528    1
  1275  1526  1529    1
  1276  1531  1532    1
  1277  1531  1536    1
  1278  1532  1533    1
  1279  1532  1534    1
  1280  1532  1535    1
  1281  1537  1538    1
  1282  1537  1542    1
  1283  1538  1539    1
  1284  1538  1540    1
  1285  1538  1541    1
  1286  1543  1544    1
  1287  1543  1548    1
  1288  1544  1545    1
  1289  1544  1546    1
  1290  1544  1547    1
  1291  1549  1550    1
  1292  1549  1554    1
  1293  1550  1551    1
  1294  1550  1552    1
  1295  1550  1553    1
  1296  1555  1556    1
  1297  1555  1560    1
  1298  1556  1557    1
  1299  1556  1558    1
  1300  1556  1559    1
  1301  1561  1562    1
  1302  1561  1566    1
  1303  1562  1563    1
  1304  1562  1564    1
  1305  1562  1565    1
  1306  1567  1568    1
  1307  1567  1572    1
  1308  1568  1569    1
  1309  1568  1570    1
  1310  1568  1571    1
  1311  1573  1574    1
  1312  1573  1578    1
  1313  1574  1575    1
  1314  1574  1576    1
  1315  1574  1577    1
  1316  1579  1580    1
  1317  1579  1584    1
  1318  1580  1581    1
  1319  1580  1582    1
  1320  1580  1583    1
  1321  1585  1586    1
  1322  1585  1590    1
  1323  1586  1587    1
  1324  1586  1588    1
  1325  1586  1589    1
  1326  1591  1592    1
  1327  1591  1596    1
  1328  1592  1593    1
  1329  1592  1594    1
  1330  1592  1595    1
  1331  1597  1598    1
  1332  1597  1602    1
  1333  1598  1599    1
  1334  1598  1600    1
  1335  1598  1601    1
  1336  1603  1604    1
  1337  1603  1608    1
  1338  1604  1605    1
  1339  1604  1606    1
  1340  1604  1607    1
  1341  1609  1610    1
  1342  1609  1614    1
  1343  1610  1611    1
  1344  1610  1612    1
  1345  1610  1613    1
  1346  1615  1616    1
  1347  1615  1620    1
  1348  1616  1617    1
  1349  1616  1618    1
  1350  1616  1619    1
  1351  1621  1622    1
  1352  1621  1626    1
  1353  1622  1623    1
  1354  1622  1624    1
  1355  1622  1625    1
  1356  1627  1628    1
  1357  1627  1632    1
  1358  1628  1629    1
  1359  1628  1630    1
  1360  1628  1631    1
  1361  1633  1634    1
  1362  1633  1638    1
  1363  1634  1635    1
  1364  1634  1636    1
  1365  1634  1637    1
  1366  1639  1640    1
  1367  1639  1644    1
  1368  1640  1641    1
  1369  1640  1642    1
  1370  1640  1643    1
  1371  1645  1646    1
  1372  1645  1650    1
  1373  1646  1647    1
  1374  1646  1648    1
  1375  1646  1649    1
  1376  1651  1652    1
  1377  1651  1656    1
  1378  1652  1653    1
  1379  1652  1654    1
  1380  1652  1655    1
  1381  1657  1658    1
  1382  1657  1662    1
  1383  1658  1659    1
  1384  1658  1660    1
  1385  1658  1661    1
  1386  1663  1664    1
  1387  1663  1668    1
  1388  1664  1665    1
  1389  1664  1666    1
  1390  1664  1667    1
  1391  1669  1670    1
  1392  1669  1674    1
  1393  1670  1671    1
  1394  1670  1672    1
  1395  1670  1673    1
  1396  1675  1676    1
  1397  1675  1680    1
  1398  1676  1677    1
  1399  1676  1678    1
  1400  1676  1679    1
  1401  1681  1682    1
  1402  1681  1686    1
  1403  1682  1683    1
  1404  1682  1684    1
  1405  1682  1685    1
  1406  1687  1688    1
  1407  1687  1692    1
  1408  1688  1689    1
  1409  1688  1690    1
  1410  1688  1691    1
  1411  1693  1694    1
  1412  1693  1698    1
  1413  1694  1695    1
  1414  1694  1696    1
  1415  1694  1697    1
  1416  1699  1700    1
  1417  1699  1704    1
  1418  1700  1701    1
  1419  1700  1702    1
  1420  1700  1703    1
  1421  1705  1706    1
  1422  1705  1710    1
  1423  1706  1707    1
  1424  1706  1708    1
  1425  1706  1709    1
  1426  1711  1712    1
  1427  1711  1716    1
  1428  1712  1713    1
  1429  1712  1714    1
  1430  1712  1715    1
  1431  1717  1718    1
  1432  1717  1722    1
  1433  1718  1719    1
  1434  1718  1720    1
  1435  1718  1721    1
  1436  1723  1724    1
  1437  1723  1728    1
  1438  1724  1725    1
  1439  1724  1726    1
  1440  1724  1727    1
  1441  1729  1730    1
  1442  1729  1734    1
  1443  1730  1731    1
  1444  1730  1732    1
  1445  1730  1733    1
  1446  1735  1736    1
  1447  1735  1740    1
  1448  1736  1737    1
  1449  1736  1738    1
  1450  1736  1739    1
  1451  1741  1742    1
  1452  1741  1746    1
  1453  1742  1743    1
  1454  1742  1744    1
  1455  1742  1745    1
  1456  1747  1748    1
  1457  1747  1752    1
  1458  1748  1749    1
  1459  1748  1750    1
  1460  1748  1751    1
  1461  1753  1754    1
  1462  1753  1758    1
  1463  1754  1755    1
  1464  1754  1756    1
  1465  1754  1757    1
  1466  1759  1760    1
  1467  1759  1764    1
  1468  1760  1761    1
  1469  1760  1762    1
  1470  1760  1763    1
  1471  1765  1766    1
  1472  1765  1770    1
  1473  1766  1767    1
  1474  1766  1768    1
  1475  1766  1769    1
  1476  1771  1772    1
  1477  1771  1776    1
  1478  1772  1773    1
  1479  1772  1774    1
  1480  1772  1775    1
  1481  1777  1778    1
  1482  1777  1782    1
  1483  1778  1779    1
  1484  1778  1780    1
  1485  1778  1781    1
  1486  1783  1784    1
  1487  1783  1788    1
  1488  1784  1785    1
  1489  1784  1786    1
  1490  1784  1787    1
  1491  1789  1790    1
  1492  1789  1794    1
  1493  1790  1791    1
  1494  1790  1792    1
  1495  1790  1793    1
  1496  1795  1796    1
  1497  1795  1800    1
  1498  1796  1797    1
  1499  1796  1798    1
  1500  1796  1799    1
  1501  1801  1802    1
  1502  1801  1806    1
  1503  1802  1803    1
  1504  1802  1804    1
  1505  1802  1805    1
  1506  1807  1808    1
  1507  1807  1812    1
  1508  1808  1809    1
  1509  1808  1810    1
  1510  1808  1811    1
  1511  1813  1814    1
  1512  1813  1818    1
  1513  1814  1815    1
  1514  1814  1816    1
  1515  1814  1817    1
  1516  1819  1820    1
  1517  1819  1824    1
  1518  1820  1821    1
  1519  1820  1822    1
  1520  1820  1823    1
  1521  1825  1826    1
  1522  1825  1830    1
  1523  1826  1827    1
  1524  1826  1828    1
  1525  1826  1829    1
  1526  1831  1832    1
  1527  1831  1836    1
  1528  1832  1833    1
  1529  1832  1834    1
  1530  1832  1835    1
  1531  1837  1838    1
  1532  1837  1842    1
  1533  1838  1839    1
  1534  1838  1840    1
  1535  1838  1841    1
  1536  1843  1844    1
  1537  1843  1848    1
  1538  1844  1845    1
  1539  1844  1846    1
  1540  1844  1847    1
  1541  1849  1850    1
  1542  1849  1854    1
  1543  1850  1851    1
  1544  1850  1852    1
  1545  1850  1853    1
  1546  1855  1856    1
  1547  1855  1860    1
  1548  1856  1857    1
  1549  1856  1858    1
  1550  1856  1859    1
  1551  1861  1862    1
  1552  1861  1866    1
  1553  1862  1863    1
  1554  1862  1864    1
  1555  1862  1865    1
  1556  1867  1868    1
  1557  1867  1872    1
  1558  1868  1869    1
  1559  1868  1870    1
  1560  1868  1871    1
  1561  1873  1874    1
  1562  1873  1878    1
  1563  1874  1875    1
  1564  1874  1876    1
  1565  1874  1877    1
  1566  1879  1880    1
  1567  1879  1884    1
  1568  1880  1881    1
  1569  1880  1882    1
  1570  1880  1883    1
  1571  1885  1886    1
  1572  1885  1890    1
  1573  1886  1887    1
  1574  1886  1888    1
  1575  1886  1889    1
  1576  1891  1892    1
  1577  1891  1896    1
  1578  1892  1893    1
  1579  1892  1894    1
  1580  1892  1895    1
  1581  1897  1898    1
  1582  1897  1902    1
  1583  1898  1899    1
  1584  1898  1900    1
  1585  1898  1901    1
  1586  1903  1904    1
  1587  1903  1908    1
  1588  1904  1905    1
  1589  1904  1906    1
  1590  1904  1907    1
  1591  1909  1910    1
  1592  1909  1914    1
  1593  1910  1911    1
  1594  1910  1912    1
  1595  1910  1913    1
  1596  1915  1916    1
  1597  1915  1920    1
  1598  1916  1917    1
  1599  1916  1918    1
  1600  1916  1919    1
  1601  1921  1922    1
  1602  1921  1926    1
  1603  1922  1923    1
  1604  1922  1924    1
  1605  1922  1925    1
  1606  1927  1928    1
  1607  1927  1932    1
  1608  1928  1929    1
  1609  1928  1930    1
  1610  1928  1931    1
  1611  1933  1934    1
  1612  1933  1938    1
  1613  1934  1935    1
  1614  1934  1936    1
  1615  1934  1937    1
  1616  1939  1940    1
  1617  1939  1944    1
  1618  1940  1941    1
  1619  1940  1942    1
  1620  1940  1943    1
  1621  1945  1946    1
  1622  1945  1950    1
  1623  1946  1947    1
  1624  1946  1948    1
  1625  1946  1949    1
  1626  1951  1952    1
  1627  1951  1956    1
  1628  1952  1953    1
  1629  1952  1954    1
  1630  1952  1955    1
  1631  1957  1958    1
  1632  1957  1962    1
  1633  1958  1959    1
  1634  1958  1960    1
  1635  1958  1961    1
  1636  1963  1964    1
  1637  1963  1968    1
  1638  1964  1965    1
  1639  1964  1966    1
  1640  1964  1967    1
  1641  1969  1970    1
  1642  1969  1974    1
  1643  1970  1971    1
  1644  1970  1972    1
  1645  1970  1973    1
  1646  1975  1976    1
  1647  1975  1980    1
  1648  1976  1977    1
  1649  1976  1978    1
  1650  1976  1979    1
  1651  1981  1982    1
  1652  1981  1986    1
  1653  1982  1983    1
  1654  1982  1984    1
  1655  1982  1985    1
  1656  1987  1988    1
  1657  1987  1992    1
  1658  1988  1989    1
  1659  1988  1990    1
  1660  1988  1991    1
  1661  1993  1994    1
  1662  1993  1998    1
  1663  1994  1995    1
  1664  1994  1996    1
  1665  1994  1997    1
  1666  1999  2000    1
  1667  1999  2004    1
  1668  2000  2001    1
  1669  2000  2002    1
  1670  2000  2003    1
  1671  2005  2006    1
  1672  2005  2010    1
  1673  2006  2007    1
  1674  2006  2008    1
  1675  2006  2009    1
  1676  2011  2012    1
  1677  2011  2016    1
  1678  2012  2013    1
  1679  2012  2014    1
  1680  2012  2015    1
  1681  2017  2018    1
  1682  2017  2022    1
  1683  2018  2019    1
  1684  2018  2020    1
  1685  2018  2021    1
  1686  2023  2024    1
  1687  2023  2028    1
  1688  2024  2025    1
  1689  2024  2026    1
  1690  2024  2027    1
  1691  2029  2030    1
  1692  2029  2034    1
  1693  2030  2031    1
  1694  2030  2032    1
  1695  2030  2033    1
  1696  2035  2036    1
  1697  2035  2040    1
  1698  2036  2037    1
  1699  2036  2038    1
  1700  2036  2039    1
  1701  2041  2042    1
  1702  2041  2046    1
  1703  2042  2043    1
  1704  2042  2044    1
  1705  2042  2045    1
  1706  2047  2048    1
  1707  2047  2052    1
  1708  2048  2049    1
  1709  2048  2050    1
  1710  2048  2051    1
  1711  2053  2054    1
  1712  2053  2058    1
  1713  2054  2055    1
  1714  2054  2056    1
  1715  2054  2057    1
  1716  2059  2060    1
  1717  2059  2064    1
  1718  2060  2061    1
  1719  2060  2062    1
  1720  2060  2063    1
  1721  2065  2066    1
  1722  2065  2070    1
  1723  2066  2067    1
  1724  2066  2068    1
  1725  2066  2069    1
  1726  2071  2072    1
  1727  2071  2076    1
  1728  2072  2073    1
  1729  2072  2074    1
  1730  2072  2075    1
  1731  2077  2078    1
  1732  2077  2082    1
  1733  2078  2079    1
  1734  2078  2080    1
  1735  2078  2081    1
  1736  2083  2084    1
  1737  2083  2088    1
  1738  2084  2085    1
  1739  2084  2086    1
  1740  2084  2087    1
  1741  2089  2090    1
  1742  2089  2094    1
  1743  2090  2091    1
  1744  2090  2092    1
  1745  2090  2093    1
  1746  2095  2096    1
  1747  2095  2100    1
  1748  2096  2097    1
  1749  2096  2098    1
  1750  2096  2099    1
  1751  2101  2102    1
  1752  2101  2106    1
  1753  2102  2103    1
  1754  2102  2104    1
  1755  2102  2105    1
  1756  2107  2108    1
  1757  2107  2112    1
  1758  2108  2109    1
  1759  2108  2110    1
  1760  2108  2111    1
  1761  2113  2114    1
  1762  2113  2118    1
  1763  2114  2115    1
  1764  2114  2116    1
  1765  2114  2117    1
  1766  2119  2120    1
  1767  2119  2124    1
  1768  2120  2121    1
  1769  2120  2122    1
  1770  2120  2123    1
  1771  2125  2126    1
  1772  2125  2130    1
  1773  2126  2127    1
  1774  2126  2128    1
  1775  2126  2129    1
  1776  2131  2132    1
  1777  2131  2136    1
  1778  2132  2133    1
  1779  2132  2134    1
  1780  2132  2135    1
  1781  2137  2138    1
  1782  2137  2142    1
  1783  2138  2139    1
  1784  2138  2140    1
  1785  2138  2141    1
  1786  2143  2144    1
  1787  2143  2148    1
  1788  2144  2145    1
  1789  2144  2146    1
  1790  2144  2147    1
  1791  2149  2150    1
  1792  2149  2154    1
  1793  2150  2151    1
  1794  2150  2152    1
  1795  2150  2153    1
  1796  2155  2156    1
  1797  2155  2160    1
  1798  2156  2157    1
  1799  2156  2158    1
  1800  2156  2159    1
  1801  2161  2162    1
  1802  2161  2166    1
  1803  2162  2163    1
  1804  2162  2164    1
  1805  2162  2165    1
  1806  2167  2168    1
  1807  2167  2172    1
  1808  2168  2169    1
  1809  2168  2170    1
  1810  2168  2171    1
  1811  2173  2174    1
  1812  2173  2178    1
  1813  2174  2175    1
  1814  2174  2176    1
  1815  2174  2177    1
  1816  2179  2180    1
  1817  2179  2184    1
  1818  2180  2181    1
  1819  2180  2182    1
  1820  2180  2183    1
  1821  2185  2186    1
  1822  2185  2190    1
  1823  2186  2187    1
  1824  2186  2188    1
  1825  2186  2189    1
  1826  2191  2192    1
  1827  2191  2196    1
  1828  2192  2193    1
  1829  2192  2194    1
  1830  2192  2195    1
  1831  2197  2198    1
  1832  2197  2202    1
  1833  2198  2199    1
  1834  2198  2200    1
  1835  2198  2201    1
  1836  2203  2204    1
  1837  2203  2208    1
  1838  2204  2205    1
  1839  2204  2206    1
  1840  2204  2207    1
  1841  2209  2210    1
  1842  2209  2214    1
  1843  2210  2211    1
  1844  2210  2212    1
  1845  2210  2213    1
  1846  2215  2216    1
  1847  2215  2220    1
  1848  2216  2217    1
  1849  2216  2218    1
  1850  2216  2219    1
  1851  2221  2222    1
  1852  2221  2226    1
  1853  2222  2223    1
  1854  2222  2224    1
  1855  2222  2225    1
  1856  2227  2228    1
  1857  2227  2232    1
  1858  2228  2229    1
  1859  2228  2230    1
  1860  2228  2231    1
  1861  2233  2234    1
  1862  2233  2238    1
  1863  2234  2235    1
  1864  2234  2236    1
  1865  2234  2237    1
  1866  2239  2240    1
  1867  2239  2244    1
  1868  2240  2241    1
  1869  2240  2242    1
  1870  2240  2243    1
  1871  2245  2246    1
  1872  2245  2250    1
  1873  2246  2247    1
  1874  2246  2248    1
  1875  2246  2249    1
  1876  2251  2252    1
  1877  2251  2256    1
  1878  2252  2253    1
  1879  2252  2254    1
  1880  2252  2255    1
  1881  2257  2258    1
  1882  2257  2262    1
  1883  2258  2259    1
  1884  2258  2260    1
  1885  2258  2261    1
  1886  2263  2264    1
  1887  2263  2268    1
  1888  2264  2265    1
  1889  2264  2266    1
  1890  2264  2267    1
  1891  2269  2270    1
  1892  2269  2274    1
  1893  2270  2271    1
  1894  2270  2272    1
  1895  2270  2273    1
  1896  2275  2276    1
  1897  2275  2280    1
  1898  2276  2277    1
  1899  2276  2278    1
  1900  2276  2279    1
  1901  2281  2282    1
  1902  2281  2286    1
  1903  2282  2283    1
  1904  2282  2284    1
  1905  2282  2285    1
  1906  2287  2288    1
  1907  2287  2292    1
  1908  2288  2289    1
  1909  2288  2290    1
  1910  2288  2291    1
  1911  2293  2294    1
  1912  2293  2298    1
  1913  2294  2295    1
  1914  2294  2296    1
  1915  2294  2297    1
  1916  2299  2300    1
  1917  2299  2304    1
  1918  2300  2301    1
  1919  2300  2302    1
  1920  2300  2303    1
  1921  2305  2306    1
  1922  2305  2310    1
  1923  2306  2307    1
  1924  2306  2308    1
  1925  2306  2309    1
  1926  2311  2312    1
  1927  2311  2316    1
  1928  2312  2313    1
  1929  2312  2314    1
  1930  2312  2315    1
  1931  2317  2318    1
  1932  2317  2322    1
  1933  2318  2319    1
  1934  2318  2320    1
  1935  2318  2321    1
  1936  2323  2324    1
  1937  2323  2328    1
  1938  2324  2325    1
  1939  2324  2326    1
  1940  2324  2327    1
  1941  2329  2330    1
  1942  2329  2334    1
  1943  2330  2331    1
  1944  2330  2332    1
  1945  2330  2333    1
  1946  2335  2336    1
  1947  2335  2340    1
  1948  2336  2337    1
  1949  2336  2338    1
  1950  2336  2339    1
  1951  2341  2342    1
  1952  2341  2346    1
  1953  2342  2343    1
  1954  2342  2344    1
  1955  2342  2345    1
  1956  2347  2348    1
  1957  2347  2352    1
  1958  2348  2349    1
  1959  2348  2350    1
  1960  2348  2351    1
  1961  2353  2354    1
  1962  2353  2358    1
  1963  2354  2355    1
  1964  2354  2356    1
  1965  2354  2357    1
  1966  2359  2360    1
  1967  2359  2364    1
  1968  2360  2361    1
  1969  2360  2362    1
  1970  2360  2363    1
  1971  2365  2366    1
  1972  2365  2370    1
  1973  2366  2367    1
  1974  2366  2368    1
  1975  2366  2369    1
  1976  2371  2372    1
  1977  2371  2376    1
  1978  2372  2373    1
  1979  2372  2374    1
  1980  2372  2375    1
