@<TRIPOS>MOLECULE
*****
 246 205 0 0 0
SMALL
GASTEIGER

@<TRIPOS>ATOM
      1 O          -0.2726    0.7594    2.5615 O.3     1  UNL1       -0.3982
      2 C          -0.8847    1.2300    3.7482 C.3     1  UNL1        0.0330
      3 H          -0.5537    0.6238    4.5952 H       1  UNL1        0.0521
      4 H          -1.9711    1.1714    3.6469 H       1  UNL1        0.0521
      5 H          -0.5917    2.2699    3.9108 H       1  UNL1        0.0521
      6 H          -0.5509   -0.1649    2.4437 H       1  UNL1        0.2090
      7 O          -0.3618    1.8663   16.0739 O.3     2  UNL2       -0.3982
      8 C          -0.5884    1.0214   17.1872 C.3     2  UNL2        0.0330
      9 H          -0.3497   -0.0103   16.9173 H       2  UNL2        0.0521
     10 H          -1.6340    1.0962   17.4956 H       2  UNL2        0.0521
     11 H           0.0557    1.3386   18.0107 H       2  UNL2        0.0521
     12 H          -0.9467    1.5607   15.3597 H       2  UNL2        0.2090
     13 O           0.0318    9.4901    7.1311 O.3     3  UNL3       -0.3982
     14 C          -0.3628    8.8723    5.9198 C.3     3  UNL3        0.0330
     15 H          -0.0857    9.5104    5.0770 H       3  UNL3        0.0521
     16 H          -1.4433    8.7099    5.9278 H       3  UNL3        0.0521
     17 H           0.1473    7.9104    5.8289 H       3  UNL3        0.0521
     18 H          -0.4365   10.3406    7.1838 H       3  UNL3        0.2090
     19 O          -0.6624    8.1469   19.0809 O.3     4  UNL4       -0.3982
     20 C          -0.9329    7.7700   20.4185 C.3     4  UNL4        0.0330
     21 H          -1.9731    7.4458   20.5035 H       4  UNL4        0.0521
     22 H          -0.7495    8.6192   21.0814 H       4  UNL4        0.0521
     23 H          -0.2726    6.9450   20.6957 H       4  UNL4        0.0521
     24 H          -1.2630    8.8802   18.8636 H       4  UNL4        0.2090
     25 O           3.1344    1.0281    0.1635 O.3     5  UNL5       -0.3982
     26 C           1.8170    1.5468    0.1728 C.3     5  UNL5        0.0330
     27 H           1.1001    0.7242    0.1115 H       5  UNL5        0.0521
     28 H           1.6850    2.2233   -0.6751 H       5  UNL5        0.0521
     29 H           1.6583    2.0970    1.1032 H       5  UNL5        0.0521
     30 H           3.2456    0.5455   -0.6733 H       5  UNL5        0.2090
     31 O           4.0298    0.9452    3.0149 O.3     6  UNL6       -0.3982
     32 C           3.0215    0.5457    3.9249 C.3     6  UNL6        0.0330
     33 H           3.3875   -0.2843    4.5344 H       6  UNL6        0.0521
     34 H           2.1303    0.2400    3.3714 H       6  UNL6        0.0521
     35 H           2.7735    1.3893    4.5733 H       6  UNL6        0.0521
     36 H           4.2288    0.1767    2.4534 H       6  UNL6        0.2090
     37 O           2.5397    1.1891    7.1443 O.3     7  UNL7       -0.3982
     38 C           1.2485    0.7808    6.7314 C.3     7  UNL7        0.0330
     39 H           0.5953    0.6976    7.6036 H       7  UNL7        0.0521
     40 H           1.3161   -0.1826    6.2203 H       7  UNL7        0.0521
     41 H           0.8424    1.5273    6.0448 H       7  UNL7        0.0521
     42 H           2.8741    0.5077    7.7521 H       7  UNL7        0.2090
     43 O           1.4789    0.6431    9.9403 O.3     8  UNL8       -0.3982
     44 C           1.1994    2.0300    9.9941 C.3     8  UNL8        0.0330
     45 H           0.4527    2.2224   10.7685 H       8  UNL8        0.0521
     46 H           0.8274    2.3654    9.0229 H       8  UNL8        0.0521
     47 H           2.1187    2.5686   10.2355 H       8  UNL8        0.0521
     48 H           0.6451    0.1917    9.7244 H       8  UNL8        0.2090
     49 O           2.4289    1.2732   12.7635 O.3     9  UNL9       -0.3982
     50 C           1.8464    1.8659   13.9097 C.3     9  UNL9        0.0330
     51 H           1.7316    1.1119   14.6925 H       9  UNL9        0.0521
     52 H           0.8723    2.2864   13.6484 H       9  UNL9        0.0521
     53 H           2.5008    2.6637   14.2686 H       9  UNL9        0.0521
     54 H           1.8261    0.5696   12.4681 H       9  UNL9        0.2090
     55 O           4.0062    1.1836   18.2652 O.3    10  UNL10      -0.3982
     56 C           2.8281    1.2709   17.4848 C.3    10  UNL10       0.0330
     57 H           2.0941    0.5479   17.8493 H      10  UNL10       0.0521
     58 H           3.0674    1.0673   16.4383 H      10  UNL10       0.0521
     59 H           2.4176    2.2795   17.5728 H      10  UNL10       0.0521
     60 H           4.3473    0.2782   18.1673 H      10  UNL10       0.2090
     61 O           3.8610    3.9537    0.1537 O.3    11  UNL11      -0.3982
     62 C           2.8142    4.8874   -0.0380 C.3    11  UNL11       0.0330
     63 H           1.8702    4.3545   -0.1764 H      11  UNL11       0.0521
     64 H           3.0295    5.5026   -0.9151 H      11  UNL11       0.0521
     65 H           2.7428    5.5274    0.8446 H      11  UNL11       0.0521
     66 H           3.9001    3.4004   -0.6449 H      11  UNL11       0.2090
     67 O           1.4597    4.0914    3.5810 O.3    12  UNL12      -0.3982
     68 C           0.4806    4.5332    2.6586 C.3    12  UNL12       0.0330
     69 H          -0.5082    4.2081    2.9917 H      12  UNL12       0.0521
     70 H           0.6976    4.1209    1.6702 H      12  UNL12       0.0521
     71 H           0.5056    5.6243    2.6093 H      12  UNL12       0.0521
     72 H           1.4137    3.1204    3.6032 H      12  UNL12       0.2090
     73 O           1.7123    4.1013    6.8665 O.3    13  UNL13      -0.3982
     74 C           0.3985    4.5945    7.0541 C.3    13  UNL13       0.0330
     75 H          -0.2743    3.7640    7.2819 H      13  UNL13       0.0521
     76 H           0.0680    5.1071    6.1475 H      13  UNL13       0.0521
     77 H           0.3994    5.2993    7.8889 H      13  UNL13       0.0521
     78 H           1.6800    3.4790    6.1200 H      13  UNL13       0.2090
     79 O           1.7528    5.2339    9.9815 O.3    14  UNL14      -0.3982
     80 C           3.1405    5.0221    9.7976 C.3    14  UNL14       0.0330
     81 H           3.5440    4.4786   10.6555 H      14  UNL14       0.0521
     82 H           3.6461    5.9851    9.6921 H      14  UNL14       0.0521
     83 H           3.2928    4.4320    8.8908 H      14  UNL14       0.0521
     84 H           1.6491    5.7598   10.7929 H      14  UNL14       0.2090
     85 O           2.5212    5.5289   13.4480 O.3    15  UNL15      -0.3982
     86 C           1.1095    5.6033   13.5265 C.3    15  UNL15       0.0330
     87 H           0.6888    4.5948   13.5056 H      15  UNL15       0.0521
     88 H           0.7272    6.1865   12.6852 H      15  UNL15       0.0521
     89 H           0.8310    6.0926   14.4627 H      15  UNL15       0.0521
     90 H           2.7379    5.0904   12.6076 H      15  UNL15       0.2090
     91 O           1.7302    5.1380   16.7925 O.3    16  UNL16      -0.3982
     92 C           0.4273    5.6109   17.0810 C.3    16  UNL16       0.0330
     93 H           0.0666    5.1484   18.0031 H      16  UNL16       0.0521
     94 H          -0.2418    5.3666   16.2523 H      16  UNL16       0.0521
     95 H           0.4633    6.6952   17.2097 H      16  UNL16       0.0521
     96 H           1.6665    4.1738   16.6835 H      16  UNL16       0.2090
     97 O           2.1928    3.9094   19.5345 O.3    17  UNL17      -0.3982
     98 C           1.5969    4.3281   20.7486 C.3    17  UNL17       0.0330
     99 H           2.3344    4.2790   21.5535 H      17  UNL17       0.0521
    100 H           0.7461    3.6824   20.9795 H      17  UNL17       0.0521
    101 H           1.2501    5.3581   20.6374 H      17  UNL17       0.0521
    102 H           2.4905    2.9927   19.6636 H      17  UNL17       0.2090
    103 O           4.0018    9.0060    0.8221 O.3    18  UNL18      -0.3982
    104 C           2.8646    8.2774    0.3976 C.3    18  UNL18       0.0330
    105 H           2.5026    7.6539    1.2189 H      18  UNL18       0.0521
    106 H           3.1299    7.6526   -0.4587 H      18  UNL18       0.0521
    107 H           2.0814    8.9803    0.1042 H      18  UNL18       0.0521
    108 H           4.6791    8.3562    1.0759 H      18  UNL18       0.2090
    109 O           2.3265    6.9236    3.8881 O.3    19  UNL19      -0.3982
    110 C           2.0714    8.3151    3.8309 C.3    19  UNL19       0.0330
    111 H           2.2266    8.7559    4.8189 H      19  UNL19       0.0521
    112 H           1.0433    8.4847    3.5020 H      19  UNL19       0.0521
    113 H           2.7602    8.7736    3.1175 H      19  UNL19       0.0521
    114 H           1.7007    6.5445    4.5285 H      19  UNL19       0.2090
    115 O           3.9569    6.7802    7.2116 O.3    20  UNL20      -0.3982
    116 C           2.7642    7.5265    7.3701 C.3    20  UNL20       0.0330
    117 H           3.0086    8.5853    7.4868 H      20  UNL20       0.0521
    118 H           2.2229    7.1676    8.2488 H      20  UNL20       0.0521
    119 H           2.1417    7.3943    6.4821 H      20  UNL20       0.0521
    120 H           4.4884    6.9171    8.0143 H      20  UNL20       0.2090
    121 O           2.0996    8.5541   10.4913 O.3    21  UNL21      -0.3982
    122 C           0.7145    8.3340   10.2975 C.3    21  UNL21       0.0330
    123 H           0.3590    7.5901   11.0147 H      21  UNL21       0.0521
    124 H           0.5395    7.9848    9.2770 H      21  UNL21       0.0521
    125 H           0.1799    9.2737   10.4554 H      21  UNL21       0.0521
    126 H           2.5473    7.7035   10.3446 H      21  UNL21       0.2090
    127 O           1.5662    8.5747   13.8374 O.3    22  UNL22      -0.3982
    128 C           0.2684    8.9719   13.4343 C.3    22  UNL22       0.0330
    129 H          -0.2784    8.1043   13.0567 H      22  UNL22       0.0521
    130 H           0.3452    9.7347   12.6558 H      22  UNL22       0.0521
    131 H          -0.2602    9.3860   14.2962 H      22  UNL22       0.0521
    132 H           2.0105    8.2116   13.0524 H      22  UNL22       0.2090
    133 O           2.8984    9.0907   17.7333 O.3    23  UNL23      -0.3982
    134 C           3.0476    8.0277   16.8102 C.3    23  UNL23       0.0330
    135 H           2.0979    7.8520   16.2988 H      23  UNL23       0.0521
    136 H           3.3608    7.1250   17.3402 H      23  UNL23       0.0521
    137 H           3.8096    8.2993   16.0758 H      23  UNL23       0.0521
    138 H           2.2165    8.8210   18.3719 H      23  UNL23       0.2090
    139 O           6.0975    0.9334    0.8362 O.3    24  UNL24      -0.3982
    140 C           6.8247    1.5069   -0.2347 C.3    24  UNL24       0.0330
    141 H           7.1625    0.7176   -0.9109 H      24  UNL24       0.0521
    142 H           7.6833    2.0558    0.1595 H      24  UNL24       0.0521
    143 H           6.1733    2.1952   -0.7782 H      24  UNL24       0.0521
    144 H           6.7010    0.3279    1.2995 H      24  UNL24       0.2090
    145 O           8.0301    0.1901    3.7296 O.3    25  UNL25      -0.3982
    146 C           7.4997    1.5022    3.6881 C.3    25  UNL25       0.0330
    147 H           8.0225    2.1306    4.4134 H      25  UNL25       0.0521
    148 H           6.4320    1.4719    3.9189 H      25  UNL25       0.0521
    149 H           7.6420    1.9114    2.6852 H      25  UNL25       0.0521
    150 H           7.8893   -0.1466    4.6309 H      25  UNL25       0.2090
    151 O           7.0995    0.7761    6.9686 O.3    26  UNL26      -0.3982
    152 C           5.7330    0.7483    6.5995 C.3    26  UNL26       0.0330
    153 H           5.5210    1.5781    5.9206 H      26  UNL26       0.0521
    154 H           5.1112    0.8279    7.4945 H      26  UNL26       0.0521
    155 H           5.5207   -0.1966    6.0939 H      26  UNL26       0.0521
    156 H           7.2578    1.6256    7.4146 H      26  UNL26       0.2090
    157 O           4.5077    1.5350    9.9441 O.3    27  UNL27      -0.3982
    158 C           5.7268    0.8895   10.2628 C.3    27  UNL27       0.0330
    159 H           6.2790    1.4900   10.9899 H      27  UNL27       0.0521
    160 H           6.3204    0.7611    9.3544 H      27  UNL27       0.0521
    161 H           5.5079   -0.0903   10.6938 H      27  UNL27       0.0521
    162 H           4.7339    2.4010    9.5639 H      27  UNL27       0.2090
    163 O           7.4394    1.6915   13.7374 O.3    28  UNL28      -0.3982
    164 C           6.0920    1.2585   13.7741 C.3    28  UNL28       0.0330
    165 H           5.9412    0.4705   13.0319 H      28  UNL28       0.0521
    166 H           5.4312    2.1029   13.5639 H      28  UNL28       0.0521
    167 H           5.8720    0.8654   14.7694 H      28  UNL28       0.0521
    168 H           7.6050    2.0347   12.8428 H      28  UNL28       0.2090
    169 O           8.2240    1.8794   17.9968 O.3    29  UNL29      -0.3982
    170 C           7.2241    1.8780   16.9945 C.3    29  UNL29       0.0330
    171 H           6.2725    2.1965   17.4273 H      29  UNL29       0.0521
    172 H           7.1281    0.8733   16.5758 H      29  UNL29       0.0521
    173 H           7.5131    2.5739   16.2034 H      29  UNL29       0.0521
    174 H           7.9401    1.2533   18.6844 H      29  UNL29       0.2090
    175 O           8.0721    4.6370   -0.0275 O.3    30  UNL30      -0.3982
    176 C           6.8909    4.8908    0.7106 C.3    30  UNL30       0.0330
    177 H           6.4913    3.9494    1.0958 H      30  UNL30       0.0521
    178 H           6.1539    5.3749    0.0652 H      30  UNL30       0.0521
    179 H           7.1297    5.5520    1.5469 H      30  UNL30       0.0521
    180 H           7.8289    4.0482   -0.7622 H      30  UNL30       0.2090
    181 O           5.6944    4.1812    3.6115 O.3    31  UNL31      -0.3982
    182 C           4.5352    4.9758    3.4397 C.3    31  UNL31       0.0330
    183 H           4.8234    5.9737    3.1000 H      31  UNL31       0.0521
    184 H           3.9951    5.0436    4.3872 H      31  UNL31       0.0521
    185 H           3.8927    4.5092    2.6892 H      31  UNL31       0.0521
    186 H           6.2446    4.6200    4.2826 H      31  UNL31       0.2090
    187 O           6.7232    5.1409    7.4583 O.3    32  UNL32      -0.3982
    188 C           5.9203    4.1317    6.8742 C.3    32  UNL32       0.0330
    189 H           5.0938    4.5929    6.3278 H      32  UNL32       0.0521
    190 H           5.5323    3.4751    7.6568 H      32  UNL32       0.0521
    191 H           6.5312    3.5480    6.1817 H      32  UNL32       0.0521
    192 H           6.1543    5.6418    8.0674 H      32  UNL32       0.2090
    193 O           6.7475    3.9503   10.2207 O.3    33  UNL33      -0.3982
    194 C           8.0707    4.4476   10.3003 C.3    33  UNL33       0.0330
    195 H           8.2035    4.9835   11.2434 H      33  UNL33       0.0521
    196 H           8.2602    5.1178    9.4583 H      33  UNL33       0.0521
    197 H           8.7688    3.6082   10.2593 H      33  UNL33       0.0521
    198 H           6.1512    4.7175   10.2595 H      33  UNL33       0.2090
    199 O           5.4025    5.1112   12.6509 O.3    34  UNL34      -0.3982
    200 C           6.4249    4.7210   13.5492 C.3    34  UNL34       0.0330
    201 H           7.2110    4.1951   13.0017 H      34  UNL34       0.0521
    202 H           6.0050    4.0701   14.3200 H      34  UNL34       0.0521
    203 H           6.8453    5.6135   14.0185 H      34  UNL34       0.0521
    204 H           5.0488    4.2989   12.2503 H      34  UNL34       0.2090
    205 O           6.1502    5.9990   17.5385 O.3    35  UNL35      -0.3982
    206 C           5.3124    5.1979   16.7256 C.3    35  UNL35       0.0330
    207 H           4.3690    5.0119   17.2449 H      35  UNL35       0.0521
    208 H           5.8128    4.2514   16.5066 H      35  UNL35       0.0521
    209 H           5.1132    5.7269   15.7908 H      35  UNL35       0.0521
    210 H           6.3094    5.5038   18.3601 H      35  UNL35       0.2090
    211 O           6.3042    4.9535   20.8887 O.3    36  UNL36      -0.3982
    212 C           4.9038    5.1240   20.7698 C.3    36  UNL36       0.0330
    213 H           4.4050    4.1627   20.9161 H      36  UNL36       0.0521
    214 H           4.6671    5.5225   19.7803 H      36  UNL36       0.0521
    215 H           4.5654    5.8276   21.5340 H      36  UNL36       0.0521
    216 H           6.5751    4.3246   20.1983 H      36  UNL36       0.2090
    217 O           8.1067    8.2593    3.9324 O.3    37  UNL37      -0.3982
    218 C           6.7833    7.7890    3.7535 C.3    37  UNL37       0.0330
    219 H           6.4013    8.1313    2.7885 H      37  UNL37       0.0521
    220 H           6.1503    8.1636    4.5616 H      37  UNL37       0.0521
    221 H           6.7885    6.6967    3.7742 H      37  UNL37       0.0521
    222 H           8.0702    9.2307    3.9095 H      37  UNL37       0.2090
    223 O           7.1034    9.5472    6.5212 O.3    38  UNL38      -0.3982
    224 C           7.3174    8.2934    7.1431 C.3    38  UNL38       0.0330
    225 H           6.3546    7.8263    7.3643 H      38  UNL38       0.0521
    226 H           7.8860    8.4356    8.0654 H      38  UNL38       0.0521
    227 H           7.8837    7.6519    6.4639 H      38  UNL38       0.0521
    228 H           6.5991   10.0943    7.1472 H      38  UNL38       0.2090
    229 O           6.5354    8.9119   10.2950 O.3    39  UNL39      -0.3982
    230 C           5.5168    8.0693   10.8020 C.3    39  UNL39       0.0330
    231 H           5.2351    7.3379   10.0404 H      39  UNL39       0.0521
    232 H           4.6496    8.6723   11.0817 H      39  UNL39       0.0521
    233 H           5.8942    7.5467   11.6840 H      39  UNL39       0.0521
    234 H           6.1713    9.3619    9.5136 H      39  UNL39       0.2090
    235 O           6.4440    8.9161   13.8377 O.3    40  UNL40      -0.3982
    236 C           7.7092    8.2871   13.7483 C.3    40  UNL40       0.0330
    237 H           8.4892    9.0470   13.6557 H      40  UNL40       0.0521
    238 H           7.7268    7.6239   12.8801 H      40  UNL40       0.0521
    239 H           7.8798    7.7016   14.6548 H      40  UNL40       0.0521
    240 H           6.3209    9.4277   13.0200 H      40  UNL40       0.2090
    241 O           7.3970    9.7765   17.6277 O.3    41  UNL41      -0.3982
    242 C           6.3128    9.1564   16.9611 C.3    41  UNL41       0.0330
    243 H           5.8340    9.8771   16.2935 H      41  UNL41       0.0521
    244 H           5.5924    8.7909   17.6970 H      41  UNL41       0.0521
    245 H           6.6902    8.3152   16.3751 H      41  UNL41       0.0521
    246 H           7.0314   10.5184   18.1390 H      41  UNL41       0.2090
@<TRIPOS>BOND
     1     1     2    1
     2     1     6    1
     3     2     3    1
     4     2     4    1
     5     2     5    1
     6     7     8    1
     7     7    12    1
     8     8     9    1
     9     8    10    1
    10     8    11    1
    11    13    14    1
    12    13    18    1
    13    14    15    1
    14    14    16    1
    15    14    17    1
    16    19    20    1
    17    19    24    1
    18    20    21    1
    19    20    22    1
    20    20    23    1
    21    25    26    1
    22    25    30    1
    23    26    27    1
    24    26    28    1
    25    26    29    1
    26    31    32    1
    27    31    36    1
    28    32    33    1
    29    32    34    1
    30    32    35    1
    31    37    38    1
    32    37    42    1
    33    38    39    1
    34    38    40    1
    35    38    41    1
    36    43    44    1
    37    43    48    1
    38    44    45    1
    39    44    46    1
    40    44    47    1
    41    49    50    1
    42    49    54    1
    43    50    51    1
    44    50    52    1
    45    50    53    1
    46    55    56    1
    47    55    60    1
    48    56    57    1
    49    56    58    1
    50    56    59    1
    51    61    62    1
    52    61    66    1
    53    62    63    1
    54    62    64    1
    55    62    65    1
    56    67    68    1
    57    67    72    1
    58    68    69    1
    59    68    70    1
    60    68    71    1
    61    73    74    1
    62    73    78    1
    63    74    75    1
    64    74    76    1
    65    74    77    1
    66    79    80    1
    67    79    84    1
    68    80    81    1
    69    80    82    1
    70    80    83    1
    71    85    86    1
    72    85    90    1
    73    86    87    1
    74    86    88    1
    75    86    89    1
    76    91    92    1
    77    91    96    1
    78    92    93    1
    79    92    94    1
    80    92    95    1
    81    97    98    1
    82    97   102    1
    83    98    99    1
    84    98   100    1
    85    98   101    1
    86   103   104    1
    87   103   108    1
    88   104   105    1
    89   104   106    1
    90   104   107    1
    91   109   110    1
    92   109   114    1
    93   110   111    1
    94   110   112    1
    95   110   113    1
    96   115   116    1
    97   115   120    1
    98   116   117    1
    99   116   118    1
   100   116   119    1
   101   121   122    1
   102   121   126    1
   103   122   123    1
   104   122   124    1
   105   122   125    1
   106   127   128    1
   107   127   132    1
   108   128   129    1
   109   128   130    1
   110   128   131    1
   111   133   134    1
   112   133   138    1
   113   134   135    1
   114   134   136    1
   115   134   137    1
   116   139   140    1
   117   139   144    1
   118   140   141    1
   119   140   142    1
   120   140   143    1
   121   145   146    1
   122   145   150    1
   123   146   147    1
   124   146   148    1
   125   146   149    1
   126   151   152    1
   127   151   156    1
   128   152   153    1
   129   152   154    1
   130   152   155    1
   131   157   158    1
   132   157   162    1
   133   158   159    1
   134   158   160    1
   135   158   161    1
   136   163   164    1
   137   163   168    1
   138   164   165    1
   139   164   166    1
   140   164   167    1
   141   169   170    1
   142   169   174    1
   143   170   171    1
   144   170   172    1
   145   170   173    1
   146   175   176    1
   147   175   180    1
   148   176   177    1
   149   176   178    1
   150   176   179    1
   151   181   182    1
   152   181   186    1
   153   182   183    1
   154   182   184    1
   155   182   185    1
   156   187   188    1
   157   187   192    1
   158   188   189    1
   159   188   190    1
   160   188   191    1
   161   193   194    1
   162   193   198    1
   163   194   195    1
   164   194   196    1
   165   194   197    1
   166   199   200    1
   167   199   204    1
   168   200   201    1
   169   200   202    1
   170   200   203    1
   171   205   206    1
   172   205   210    1
   173   206   207    1
   174   206   208    1
   175   206   209    1
   176   211   212    1
   177   211   216    1
   178   212   213    1
   179   212   214    1
   180   212   215    1
   181   217   218    1
   182   217   222    1
   183   218   219    1
   184   218   220    1
   185   218   221    1
   186   223   224    1
   187   223   228    1
   188   224   225    1
   189   224   226    1
   190   224   227    1
   191   229   230    1
   192   229   234    1
   193   230   231    1
   194   230   232    1
   195   230   233    1
   196   235   236    1
   197   235   240    1
   198   236   237    1
   199   236   238    1
   200   236   239    1
   201   241   242    1
   202   241   246    1
   203   242   243    1
   204   242   244    1
   205   242   245    1
