@<TRIPOS>MOLECULE
*****
 45 36 0 0 0
SMALL
GASTEIGER

@<TRIPOS>ATOM
      1 CL          2.5014   -0.5755    0.9700 Cl      1  UNL1       -0.0870
      2 CL          3.6850    2.0859    0.9700 Cl      1  UNL1       -0.0870
      3 CL          5.3981   -0.2700    0.9699 Cl      1  UNL1       -0.0870
      4 C           3.8614    0.4136    0.4125 C.3     1  UNL1        0.1805
      5 H           3.8613    0.4135   -0.6805 H       1  UNL1        0.0806
      6 CL          7.5950    6.5766    2.3445 Cl      2  UNL2       -0.0870
      7 CL          6.2945    3.9703    2.3445 Cl      2  UNL2       -0.0870
      8 CL          4.6876    6.3999    2.3444 Cl      2  UNL2       -0.0870
      9 C           6.1925    5.6488    1.7870 C.3     2  UNL2        0.1805
     10 H           6.1925    5.6489    0.6940 H       2  UNL2        0.0806
     11 CL         11.7619    1.0621    1.1831 Cl      3  UNL3       -0.0870
     12 CL          9.3208   -0.5270    1.1831 Cl      3  UNL3       -0.0870
     13 CL          9.1652    2.3818    1.1830 Cl      3  UNL3       -0.0870
     14 C          10.0826    0.9722    0.6256 C.3     3  UNL3        0.1805
     15 H          10.0827    0.9722   -0.4674 H       3  UNL3        0.0806
     16 CL         13.1052   -3.2382   -0.4969 Cl      4  UNL4       -0.0870
     17 CL         14.3290   -0.5950   -0.4969 Cl      4  UNL4       -0.0870
     18 CL         16.0062   -2.9766   -0.4970 Cl      4  UNL4       -0.0870
     19 C          14.4801   -2.2698   -1.0544 C.3     4  UNL4        0.1805
     20 H          14.4800   -2.2699   -2.1474 H       4  UNL4        0.0806
     21 CL         14.3094    3.0439   -0.4537 Cl      5  UNL5       -0.0870
     22 CL         17.1776    3.1174    0.0487 Cl      5  UNL5       -0.0870
     23 CL         15.3036    3.4398    2.2553 Cl      5  UNL5       -0.0870
     24 C          15.5969    2.6487    0.6973 C.3     5  UNL5        0.1805
     25 H          15.5969    1.5672    0.8553 H       5  UNL5        0.0806
     26 CL         20.7163    0.9856    2.4929 Cl      6  UNL6       -0.0870
     27 CL         23.5827    1.5034    2.4929 Cl      6  UNL6       -0.0870
     28 CL         22.5978   -1.2379    2.4928 Cl      6  UNL6       -0.0870
     29 C          22.2990    0.4172    1.9354 C.3     6  UNL6        0.1805
     30 H          22.2989    0.4172    0.8424 H       6  UNL6        0.0806
     31 CL         23.5467    4.6760   -0.3318 Cl      7  UNL7       -0.0870
     32 CL         21.1617    3.0038   -0.3318 Cl      7  UNL7       -0.0870
     33 CL         20.9061    5.9055   -0.3319 Cl      7  UNL7       -0.0870
     34 C          21.8715    4.5283   -0.8893 C.3     7  UNL7        0.1805
     35 H          21.8716    4.5283   -1.9823 H       7  UNL7        0.0806
     36 CL         28.2052   -1.3625    0.7992 Cl      8  UNL8       -0.0870
     37 CL         27.2933   -1.2891   -1.9661 Cl      8  UNL8       -0.0870
     38 CL         25.3809   -0.9665    0.2072 Cl      8  UNL8       -0.0870
     39 C          27.0397   -0.6544   -0.3316 C.3     8  UNL8        0.1805
     40 H          27.1961    0.4271   -0.3544 H       8  UNL8        0.0806
     41 CL         27.1305    1.5820    2.2553 Cl      9  UNL9       -0.0870
     42 CL         25.8208    4.1837    2.2553 Cl      9  UNL9       -0.0870
     43 CL         28.7289    4.0170    2.2552 Cl      9  UNL9       -0.0870
     44 C          27.2266    3.2609    1.6978 C.3     9  UNL9        0.1805
     45 H          27.2266    3.2608    0.6048 H       9  UNL9        0.0806
@<TRIPOS>BOND
     1     1     4    1
     2     2     4    1
     3     3     4    1
     4     4     5    1
     5     6     9    1
     6     7     9    1
     7     8     9    1
     8     9    10    1
     9    11    14    1
    10    12    14    1
    11    13    14    1
    12    14    15    1
    13    16    19    1
    14    17    19    1
    15    18    19    1
    16    19    20    1
    17    21    24    1
    18    22    24    1
    19    23    24    1
    20    24    25    1
    21    26    29    1
    22    27    29    1
    23    28    29    1
    24    29    30    1
    25    31    34    1
    26    32    34    1
    27    33    34    1
    28    34    35    1
    29    36    39    1
    30    37    39    1
    31    38    39    1
    32    39    40    1
    33    41    44    1
    34    42    44    1
    35    43    44    1
    36    44    45    1
