@<TRIPOS>MOLECULE
*****
 480 384 0 0 0
SMALL
GASTEIGER

@<TRIPOS>ATOM
      1 CL         -1.5066    1.6681   14.8638 Cl      1  UNL1       -0.0870
      2 CL         -0.7228    4.2698   15.9131 Cl      1  UNL1       -0.0870
      3 CL         -2.4632    4.1031   13.5833 Cl      1  UNL1       -0.0870
      4 C          -2.0107    3.3470   15.1204 C.3     1  UNL1        0.1805
      5 H          -2.8864    3.3469   15.7746 H       1  UNL1        0.0806
      6 CL         -0.2807    9.7734    2.8913 Cl      2  UNL2       -0.0870
      7 CL         -2.4040    7.7794    2.8913 Cl      2  UNL2       -0.0870
      8 CL         -3.0691   10.6153    2.8912 Cl      2  UNL2       -0.0870
      9 C          -1.9179    9.3892    2.3338 C.3     2  UNL2        0.1805
     10 H          -1.9178    9.3893    1.2408 H       2  UNL2        0.0806
     11 CL         -1.5066   18.7528    2.2624 Cl      3  UNL3       -0.0870
     12 CL         -0.7228   21.3545    3.3117 Cl      3  UNL3       -0.0870
     13 CL         -2.4632   21.1878    0.9819 Cl      3  UNL3       -0.0870
     14 C          -2.0107   20.4317    2.5190 C.3     3  UNL3        0.1805
     15 H          -2.8864   20.4316    3.1732 H       3  UNL3        0.0806
     16 CL         -0.0153   19.8594    5.5416 Cl      4  UNL4       -0.0870
     17 CL         -1.3159   17.2531    5.5416 Cl      4  UNL4       -0.0870
     18 CL         -2.9227   19.6827    5.5415 Cl      4  UNL4       -0.0870
     19 C          -1.4179   18.9316    4.9841 C.3     4  UNL4        0.1805
     20 H          -1.4178   18.9317    3.8911 H       4  UNL4        0.0806
     21 CL         -0.3053   21.3594   11.4392 Cl      5  UNL5       -0.0870
     22 CL         -0.9885   18.7531   12.5458 Cl      5  UNL5       -0.0870
     23 CL         -1.8327   21.1827   13.9131 Cl      5  UNL5       -0.0870
     24 C          -1.5165   20.4316   12.3398 C.3     5  UNL5        0.1805
     25 H          -2.4465   20.4317   11.7655 H       5  UNL5        0.0806
     26 CL         -0.8901   -0.5860   -0.2591 Cl      6  UNL6       -0.0870
     27 CL          2.0227   -0.5809   -0.2591 Cl      6  UNL6       -0.0870
     28 CL          0.5706   -3.1060   -0.2592 Cl      6  UNL6       -0.0870
     29 C           0.5678   -1.4242   -0.8166 C.3     6  UNL6        0.1805
     30 H           0.5677   -1.4241   -1.9096 H       6  UNL6        0.0806
     31 CL          0.4716   -3.1031    2.8913 Cl      7  UNL7       -0.0870
     32 CL         -0.8381   -0.5014    2.8913 Cl      7  UNL7       -0.0870
     33 CL          2.0700   -0.6681    2.8912 Cl      7  UNL7       -0.0870
     34 C           0.5677   -1.4242    2.3338 C.3     7  UNL7        0.1805
     35 H           0.5677   -1.4243    1.2408 H       7  UNL7        0.0806
     36 CL         -0.7197   -0.3425    6.0416 Cl      8  UNL8       -0.0870
     37 CL          2.1484   -0.8502    6.0416 Cl      8  UNL8       -0.0870
     38 CL          0.2745   -3.0803    6.0415 Cl      8  UNL8       -0.0870
     39 C           0.5678   -1.4242    5.4841 C.3     8  UNL8        0.1805
     40 H           0.5677   -1.4241    4.3911 H       8  UNL8        0.0806
     41 CL         -0.8901   -0.5860    9.1920 Cl      9  UNL9       -0.0870
     42 CL          2.0227   -0.5809    9.1920 Cl      9  UNL9       -0.0870
     43 CL          0.5706   -3.1060    9.1919 Cl      9  UNL9       -0.0870
     44 C           0.5678   -1.4242    8.6345 C.3     9  UNL9        0.1805
     45 H           0.5677   -1.4241    7.5415 H       9  UNL9        0.0806
     46 CL         -0.8901   -0.5860   12.3423 Cl     10  UNL10      -0.0870
     47 CL          2.0227   -0.5809   12.3423 Cl     10  UNL10      -0.0870
     48 CL          0.5706   -3.1060   12.3422 Cl     10  UNL10      -0.0870
     49 C           0.5678   -1.4242   11.7848 C.3    10  UNL10       0.1805
     50 H           0.5677   -1.4241   10.6918 H      10  UNL10       0.0806
     51 CL         -0.7197   -0.3425   18.6430 Cl     11  UNL11      -0.0870
     52 CL          2.1484   -0.8502   18.6430 Cl     11  UNL11      -0.0870
     53 CL          0.2745   -3.0803   18.6429 Cl     11  UNL11      -0.0870
     54 C           0.5678   -1.4242   18.0855 C.3    11  UNL11       0.1805
     55 H           0.5677   -1.4241   16.9925 H      11  UNL11       0.0806
     56 CL          2.7188   -2.5371   20.6738 Cl     12  UNL12      -0.0870
     57 CL          0.5409   -2.1298   22.5646 Cl     12  UNL12      -0.0870
     58 CL          2.2588    0.1013   21.8190 Cl     12  UNL12      -0.0870
     59 C           1.4964   -1.3987   21.2641 C.3    12  UNL12       0.1805
     60 H           0.8237   -1.1571   20.4371 H      12  UNL12       0.0806
     61 CL         -0.7197    3.9287    0.2409 Cl     13  UNL13      -0.0870
     62 CL          2.1484    3.4210    0.2409 Cl     13  UNL13      -0.0870
     63 CL          0.2745    1.1909    0.2408 Cl     13  UNL13      -0.0870
     64 C           0.5678    2.8470   -0.3166 C.3    13  UNL13       0.1805
     65 H           0.5677    2.8471   -1.4096 H      13  UNL13       0.0806
     66 CL         -0.7197    3.9287    3.3913 Cl     14  UNL14      -0.0870
     67 CL          2.1484    3.4210    3.3913 Cl     14  UNL14      -0.0870
     68 CL          0.2745    1.1909    3.3912 Cl     14  UNL14      -0.0870
     69 C           0.5678    2.8470    2.8338 C.3    14  UNL14       0.1805
     70 H           0.5677    2.8471    1.7408 H      14  UNL14       0.0806
     71 CL         -0.7197    3.9287    6.5416 Cl     15  UNL15      -0.0870
     72 CL          2.1484    3.4210    6.5416 Cl     15  UNL15      -0.0870
     73 CL          0.2745    1.1909    6.5415 Cl     15  UNL15      -0.0870
     74 C           0.5678    2.8470    5.9841 C.3    15  UNL15       0.1805
     75 H           0.5677    2.8471    4.8911 H      15  UNL15       0.0806
     76 CL          0.4716    1.1681    9.6920 Cl     16  UNL16      -0.0870
     77 CL         -0.8381    3.7698    9.6920 Cl     16  UNL16      -0.0870
     78 CL          2.0700    3.6031    9.6919 Cl     16  UNL16      -0.0870
     79 C           0.5677    2.8470    9.1345 C.3    16  UNL16       0.1805
     80 H           0.5677    2.8469    8.0415 H      16  UNL16       0.0806
     81 CL         -0.7197    4.9287   11.8423 Cl     17  UNL17      -0.0870
     82 CL          2.1484    4.4210   11.8423 Cl     17  UNL17      -0.0870
     83 CL          0.2745    2.1909   11.8422 Cl     17  UNL17      -0.0870
     84 C           0.5678    3.8470   11.2848 C.3    17  UNL17       0.1805
     85 H           0.5677    3.8471   10.1918 H      17  UNL17       0.0806
     86 CL          1.1775    0.7112   14.9927 Cl     18  UNL18      -0.0870
     87 CL          0.3463    3.5028   14.9927 Cl     18  UNL18      -0.0870
     88 CL          3.1796    2.8268   14.9926 Cl     18  UNL18      -0.0870
     89 C           1.5677    2.3470   14.4352 C.3    18  UNL18       0.1805
     90 H           1.5677    2.3469   13.3422 H      18  UNL18       0.0806
     91 CL          1.9716    3.4979   17.5921 Cl     19  UNL19      -0.0870
     92 CL          0.6619    1.9409   19.6764 Cl     19  UNL19      -0.0870
     93 CL          3.5700    2.0407   19.5429 Cl     19  UNL19      -0.0870
     94 C           2.0677    2.9398   19.2708 C.3    19  UNL19       0.1805
     95 H           2.0677    3.8155   19.9248 H      19  UNL19       0.0806
     96 CL          2.2049    3.2310   22.7934 Cl     20  UNL20      -0.0870
     97 CL          0.0817    1.2370   22.7934 Cl     20  UNL20      -0.0870
     98 CL         -0.5835    4.0729   22.7933 Cl     20  UNL20      -0.0870
     99 C           0.5677    2.8469   22.2359 C.3    20  UNL20       0.1805
    100 H           0.5678    2.8469   21.1429 H      20  UNL20       0.0806
    101 CL          0.2803    8.1999   -0.2591 Cl     21  UNL21      -0.0870
    102 CL          3.1484    7.6922   -0.2591 Cl     21  UNL21      -0.0870
    103 CL          1.2745    5.4621   -0.2592 Cl     21  UNL21      -0.0870
    104 C           1.5678    7.1182   -0.8166 C.3    21  UNL21       0.1805
    105 H           1.5677    7.1182   -1.9096 H      21  UNL21       0.0806
    106 CL          0.2803    8.1999    2.8913 Cl     22  UNL22      -0.0870
    107 CL          3.1484    7.6922    2.8913 Cl     22  UNL22      -0.0870
    108 CL          1.2745    5.4621    2.8912 Cl     22  UNL22      -0.0870
    109 C           1.5678    7.1182    2.3338 C.3    22  UNL22       0.1805
    110 H           1.5677    7.1182    1.2408 H      22  UNL22       0.0806
    111 CL          0.2803    8.6999    6.0416 Cl     23  UNL23      -0.0870
    112 CL          3.1484    8.1922    6.0416 Cl     23  UNL23      -0.0870
    113 CL          1.2745    5.9621    6.0415 Cl     23  UNL23      -0.0870
    114 C           1.5678    7.6182    5.4841 C.3    23  UNL23       0.1805
    115 H           1.5677    7.6182    4.3911 H      23  UNL23       0.0806
    116 CL          0.2803    8.6999    8.1920 Cl     24  UNL24      -0.0870
    117 CL          3.1484    8.1922    8.1920 Cl     24  UNL24      -0.0870
    118 CL          1.2745    5.9621    8.1919 Cl     24  UNL24      -0.0870
    119 C           1.5678    7.6182    7.6345 C.3    24  UNL24       0.1805
    120 H           1.5677    7.6182    6.5415 H      24  UNL24       0.0806
    121 CL         -0.7197    8.0622   10.7122 Cl     25  UNL25      -0.0870
    122 CL          2.1484    7.7955   11.1442 Cl     25  UNL25      -0.0870
    123 CL          0.2745    6.6239   13.0417 Cl     25  UNL25      -0.0870
    124 C           0.5678    7.0196   11.3398 C.3    25  UNL25       0.1805
    125 H           0.5677    6.0895   10.7655 H      25  UNL25       0.0806
    126 CL          4.9703    8.0458   15.4927 Cl     26  UNL26      -0.0870
    127 CL          3.6698    5.4395   15.4927 Cl     26  UNL26      -0.0870
    128 CL          2.0630    7.8691   15.4926 Cl     26  UNL26      -0.0870
    129 C           3.5678    7.1181   14.9352 C.3    26  UNL26       0.1805
    130 H           3.5679    7.1181   13.8422 H      26  UNL26       0.0806
    131 CL         -1.2738    7.2570   19.5821 Cl     27  UNL27      -0.0870
    132 CL         -0.4046    7.6954   16.8369 Cl     27  UNL27      -0.0870
    133 CL          1.1180    5.9291   18.5823 Cl     27  UNL27      -0.0870
    134 C          -0.4967    6.5283   18.1666 C.3    27  UNL27       0.1805
    135 H          -1.1042    5.6808   17.8390 H      27  UNL27       0.0806
    136 CL          1.2715    5.4393   22.0104 Cl     28  UNL28      -0.0870
    137 CL          2.0553    8.0410   20.9611 Cl     28  UNL28      -0.0870
    138 CL          0.3150    7.8743   23.2910 Cl     28  UNL28      -0.0870
    139 C           1.6606    7.1182   22.4210 C.3    28  UNL28       0.1805
    140 H           2.5363    7.1180   23.0751 H      28  UNL28       0.0806
    141 CL          2.4716    9.7104    0.8913 Cl     28  UNL28      -0.0870
    142 CL          1.1619   12.3121    0.8913 Cl     28  UNL28      -0.0870
    143 CL          4.0700   12.1454    0.8912 Cl     28  UNL28      -0.0870
    144 C           2.5677   11.3893    0.3338 C.3    28  UNL28       0.1805
    145 H           2.5677   11.3892   -0.7592 H      28  UNL28       0.0806
    146 CL         -0.7197   12.3334    2.9115 Cl     28  UNL28      -0.0870
    147 CL          2.1484   12.0667    3.3435 Cl     28  UNL28      -0.0870
    148 CL          0.2745   10.8951    5.2410 Cl     28  UNL28      -0.0870
    149 C           0.5678   11.2907    3.5391 C.3    28  UNL28       0.1805
    150 H           0.5677   10.3607    2.9648 H      28  UNL28       0.0806
    151 CL          0.5976   12.7479    9.2362 Cl     28  UNL28      -0.0870
    152 CL          1.6832   11.1909    7.0268 Cl     28  UNL28      -0.0870
    153 CL          3.0972   11.2905    9.5715 Cl     28  UNL28      -0.0870
    154 C           1.5087   11.2965    8.7867 C.3    28  UNL28       0.1805
    155 H           0.9520   10.4209    9.1304 H      28  UNL28       0.0806
    156 CL         -0.7197   12.4711   12.3423 Cl     28  UNL28      -0.0870
    157 CL          2.1484   11.9634   12.3423 Cl     28  UNL28      -0.0870
    158 CL          0.2745    9.7333   12.3422 Cl     28  UNL28      -0.0870
    159 C           0.5678   11.3894   11.7848 C.3    28  UNL28       0.1805
    160 H           0.5677   11.3894   10.6918 H      28  UNL28       0.0806
    161 CL          1.3956   10.2557   16.6609 Cl     28  UNL28      -0.0870
    162 CL          0.9800   12.5157   14.8711 Cl     28  UNL28      -0.0870
    163 CL          3.1431   10.6328   14.3614 Cl     28  UNL28      -0.0870
    164 C           1.4964   10.8250   14.9863 C.3    28  UNL28       0.1805
    165 H           0.8237   10.2175   14.3755 H      28  UNL28       0.0806
    166 CL          0.2803   12.4711   19.6430 Cl     28  UNL28      -0.0870
    167 CL          3.1484   11.9634   19.6430 Cl     28  UNL28      -0.0870
    168 CL          1.2745    9.7333   19.6429 Cl     28  UNL28      -0.0870
    169 C           1.5678   11.3894   19.0855 C.3    28  UNL28       0.1805
    170 H           1.5677   11.3894   17.9925 H      28  UNL28       0.0806
    171 CL          1.2803   16.7423   -0.2591 Cl     28  UNL28      -0.0870
    172 CL          4.1484   16.2346   -0.2591 Cl     28  UNL28      -0.0870
    173 CL          2.2745   14.0045   -0.2592 Cl     28  UNL28      -0.0870
    174 C           2.5678   15.6606   -0.8166 C.3    28  UNL28       0.1805
    175 H           2.5677   15.6606   -1.9096 H      28  UNL28       0.0806
    176 CL          1.2803   16.7423    2.8913 Cl     28  UNL28      -0.0870
    177 CL          4.1484   16.2346    2.8913 Cl     28  UNL28      -0.0870
    178 CL          2.2745   14.0045    2.8912 Cl     28  UNL28      -0.0870
    179 C           2.5678   15.6606    2.3338 C.3    28  UNL28       0.1805
    180 H           2.5677   15.6606    1.2408 H      28  UNL28       0.0806
    181 CL          0.2803   16.7423    6.0416 Cl     28  UNL28      -0.0870
    182 CL          3.1484   16.2346    6.0416 Cl     28  UNL28      -0.0870
    183 CL          1.2745   14.0045    6.0415 Cl     28  UNL28      -0.0870
    184 C           1.5678   15.6606    5.4841 C.3    28  UNL28       0.1805
    185 H           1.5677   15.6606    4.3911 H      28  UNL28       0.0806
    186 CL          3.9703   16.5882    9.1920 Cl     28  UNL28      -0.0870
    187 CL          2.6698   13.9819    9.1920 Cl     28  UNL28      -0.0870
    188 CL          1.0630   16.4115    9.1919 Cl     28  UNL28      -0.0870
    189 C           2.5678   15.6604    8.6345 C.3    28  UNL28       0.1805
    190 H           2.5679   15.6605    7.5415 H      28  UNL28       0.0806
    191 CL          0.9716   17.0191   12.9814 Cl     28  UNL28      -0.0870
    192 CL         -0.3381   15.4620   10.8971 Cl     28  UNL28      -0.0870
    193 CL          2.5700   15.5617   11.0307 Cl     28  UNL28      -0.0870
    194 C           1.0677   15.5677   11.9700 C.3    28  UNL28       0.1805
    195 H           1.0677   14.6921   12.6242 H      28  UNL28       0.0806
    196 CL          4.4703   16.5882   15.4927 Cl     28  UNL28      -0.0870
    197 CL          3.1698   13.9819   15.4927 Cl     28  UNL28      -0.0870
    198 CL          1.5630   16.4115   15.4926 Cl     28  UNL28      -0.0870
    199 C           3.0678   15.6604   14.9352 C.3    28  UNL28       0.1805
    200 H           3.0679   15.6605   13.8422 H      28  UNL28       0.0806
    201 CL          3.4716   16.5191   19.2821 Cl     28  UNL28      -0.0870
    202 CL          2.1619   14.9620   17.1978 Cl     28  UNL28      -0.0870
    203 CL          5.0700   15.0617   17.3314 Cl     28  UNL28      -0.0870
    204 C           3.5677   15.0677   18.2707 C.3    28  UNL28       0.1805
    205 H           3.5677   14.1921   18.9249 H      28  UNL28       0.0806
    206 CL          0.2715   14.4816   22.0104 Cl     28  UNL28      -0.0870
    207 CL          1.0553   17.0833   20.9611 Cl     28  UNL28      -0.0870
    208 CL         -0.6850   16.9166   23.2910 Cl     28  UNL28      -0.0870
    209 C           0.6606   16.1605   22.4210 C.3    28  UNL28       0.1805
    210 H           1.5363   16.1604   23.0751 H      28  UNL28       0.0806
    211 CL          2.9791   19.7528   -0.8880 Cl     28  UNL28      -0.0870
    212 CL          3.7629   22.3545    0.1613 Cl     28  UNL28      -0.0870
    213 CL          2.0225   22.1878   -2.1685 Cl     28  UNL28      -0.0870
    214 C           2.4750   21.4317   -0.6313 C.3    28  UNL28       0.1805
    215 H           1.5993   21.4316    0.0228 H      28  UNL28       0.0806
    216 CL          3.4703   19.5433    2.9710 Cl     28  UNL28      -0.0870
    217 CL          2.1698   18.1741    0.7533 Cl     28  UNL28      -0.0870
    218 CL          0.5630   19.4505    2.8206 Cl     28  UNL28      -0.0870
    219 C           2.0678   19.5303    1.8887 C.3    28  UNL28       0.1805
    220 H           2.0679   20.4603    1.3146 H      28  UNL28       0.0806
    221 CL          2.9791   18.7528    5.4127 Cl     28  UNL28      -0.0870
    222 CL          3.7629   21.3545    6.4620 Cl     28  UNL28      -0.0870
    223 CL          2.0225   21.1878    4.1322 Cl     28  UNL28      -0.0870
    224 C           2.4750   20.4317    5.6694 C.3    28  UNL28       0.1805
    225 H           1.5993   20.4316    6.3235 H      28  UNL28       0.0806
    226 CL          3.9703   20.8594    9.1920 Cl     28  UNL28      -0.0870
    227 CL          2.6698   18.2531    9.1920 Cl     28  UNL28      -0.0870
    228 CL          1.0630   20.6827    9.1919 Cl     28  UNL28      -0.0870
    229 C           2.5678   19.9316    8.6345 C.3    28  UNL28       0.1805
    230 H           2.5679   19.9317    7.5415 H      28  UNL28       0.0806
    231 CL          2.4716   20.7902   12.9814 Cl     28  UNL28      -0.0870
    232 CL          1.1619   19.2332   10.8971 Cl     28  UNL28      -0.0870
    233 CL          4.0700   19.3329   11.0307 Cl     28  UNL28      -0.0870
    234 C           2.5677   19.3388   11.9700 C.3    28  UNL28       0.1805
    235 H           2.5677   18.4632   12.6242 H      28  UNL28       0.0806
    236 CL         -0.7197   22.0135   15.4927 Cl     28  UNL28      -0.0870
    237 CL          2.1484   21.5058   15.4927 Cl     28  UNL28      -0.0870
    238 CL          0.2745   19.2757   15.4926 Cl     28  UNL28      -0.0870
    239 C           0.5678   20.9317   14.9352 C.3    28  UNL28       0.1805
    240 H           0.5677   20.9318   13.8422 H      28  UNL28       0.0806
    241 CL          0.2803   21.0135   18.6430 Cl     28  UNL28      -0.0870
    242 CL          3.1484   20.5058   18.6430 Cl     28  UNL28      -0.0870
    243 CL          1.2745   18.2757   18.6429 Cl     28  UNL28      -0.0870
    244 C           1.5678   19.9317   18.0855 C.3    28  UNL28       0.1805
    245 H           1.5677   19.9318   16.9925 H      28  UNL28       0.0806
    246 CL          0.7859   24.1806    1.6861 Cl     28  UNL28      -0.0870
    247 CL         -1.0925   23.9078    3.8954 Cl     28  UNL28      -0.0870
    248 CL         -1.6368   22.5988    1.3508 Cl     28  UNL28      -0.0870
    249 C          -0.3757   23.1086    2.4861 C.3    28  UNL28       0.1805
    250 H           0.1578   22.2187    2.8297 H      28  UNL28       0.0806
    251 CL         -1.0367   23.9630    6.6410 Cl     28  UNL28      -0.0870
    252 CL         -0.3998   22.0306    8.7254 Cl     28  UNL28      -0.0870
    253 CL          1.0429   24.5576    8.5919 Cl     28  UNL28      -0.0870
    254 C          -0.5113   23.7516    8.3197 C.3    28  UNL28       0.1805
    255 H          -1.2564   24.2116    8.9737 H      28  UNL28       0.0806
    256 CL          0.1478   23.8538   10.1371 Cl     28  UNL28      -0.0870
    257 CL          1.2334   22.2968   12.3465 Cl     28  UNL28      -0.0870
    258 CL          2.6475   22.3967    9.8019 Cl     28  UNL28      -0.0870
    259 C           1.6267   23.2957   10.9372 C.3    28  UNL28       0.1805
    260 H           2.1832   24.1714   11.2808 H      28  UNL28       0.0806
    261 CL          5.5956   -0.5860   -0.2591 Cl     28  UNL28      -0.0870
    262 CL          8.5084   -0.5809   -0.2591 Cl     28  UNL28      -0.0870
    263 CL          7.0563   -3.1060   -0.2592 Cl     28  UNL28      -0.0870
    264 C           7.0535   -1.4242   -0.8166 C.3    28  UNL28       0.1805
    265 H           7.0534   -1.4241   -1.9096 H      28  UNL28       0.0806
    266 CL          5.5956   -0.5860    2.8913 Cl     28  UNL28      -0.0870
    267 CL          8.5084   -0.5809    2.8913 Cl     28  UNL28      -0.0870
    268 CL          7.0563   -3.1060    2.8912 Cl     28  UNL28      -0.0870
    269 C           7.0535   -1.4242    2.3338 C.3    28  UNL28       0.1805
    270 H           7.0534   -1.4241    1.2408 H      28  UNL28       0.0806
    271 CL          5.5956   -0.5860    6.0416 Cl     28  UNL28      -0.0870
    272 CL          8.5084   -0.5809    6.0416 Cl     28  UNL28      -0.0870
    273 CL          7.0563   -3.1060    6.0415 Cl     28  UNL28      -0.0870
    274 C           7.0535   -1.4242    5.4841 C.3    28  UNL28       0.1805
    275 H           7.0534   -1.4241    4.3911 H      28  UNL28       0.0806
    276 CL          8.4560   -0.4966    9.1920 Cl     28  UNL28      -0.0870
    277 CL          7.1555   -3.1028    9.1920 Cl     28  UNL28      -0.0870
    278 CL          5.5486   -0.6733    9.1919 Cl     28  UNL28      -0.0870
    279 C           7.0534   -1.4243    8.6345 C.3    28  UNL28       0.1805
    280 H           7.0535   -1.4243    7.5415 H      28  UNL28       0.0806
    281 CL          8.4560   -0.4966   12.3423 Cl     28  UNL28      -0.0870
    282 CL          7.1555   -3.1028   12.3423 Cl     28  UNL28      -0.0870
    283 CL          5.5486   -0.6733   12.3422 Cl     28  UNL28      -0.0870
    284 C           7.0534   -1.4243   11.7848 C.3    28  UNL28       0.1805
    285 H           7.0535   -1.4243   10.6918 H      28  UNL28       0.0806
    286 CL          8.4560   -0.4966   15.4927 Cl     28  UNL28      -0.0870
    287 CL          7.1555   -3.1028   15.4927 Cl     28  UNL28      -0.0870
    288 CL          5.5486   -0.6733   15.4926 Cl     28  UNL28      -0.0870
    289 C           7.0534   -1.4243   14.9352 C.3    28  UNL28       0.1805
    290 H           7.0535   -1.4243   13.8422 H      28  UNL28       0.0806
    291 CL          8.4560   -0.4966   18.6430 Cl     28  UNL28      -0.0870
    292 CL          7.1555   -3.1028   18.6430 Cl     28  UNL28      -0.0870
    293 CL          5.5486   -0.6733   18.6429 Cl     28  UNL28      -0.0870
    294 C           7.0534   -1.4243   18.0855 C.3    28  UNL28       0.1805
    295 H           7.0535   -1.4243   16.9925 H      28  UNL28       0.0806
    296 CL          8.4560    3.7746    0.8913 Cl     28  UNL28      -0.0870
    297 CL          7.1555    1.1683    0.8913 Cl     28  UNL28      -0.0870
    298 CL          5.5486    3.5979    0.8912 Cl     28  UNL28      -0.0870
    299 C           7.0534    2.8469    0.3338 C.3    28  UNL28       0.1805
    300 H           7.0535    2.8469   -0.7592 H      28  UNL28       0.0806
    301 CL          8.4560    3.7746    4.0416 Cl     28  UNL28      -0.0870
    302 CL          7.1555    1.1683    4.0416 Cl     28  UNL28      -0.0870
    303 CL          5.5486    3.5979    4.0415 Cl     28  UNL28      -0.0870
    304 C           7.0534    2.8469    3.4841 C.3    28  UNL28       0.1805
    305 H           7.0535    2.8469    2.3911 H      28  UNL28       0.0806
    306 CL          8.4560    3.7746    7.1920 Cl     28  UNL28      -0.0870
    307 CL          7.1555    1.1683    7.1920 Cl     28  UNL28      -0.0870
    308 CL          5.5486    3.5979    7.1919 Cl     28  UNL28      -0.0870
    309 C           7.0534    2.8469    6.6345 C.3    28  UNL28       0.1805
    310 H           7.0535    2.8469    5.5415 H      28  UNL28       0.0806
    311 CL          8.4560    3.7746   10.3423 Cl     28  UNL28      -0.0870
    312 CL          7.1555    1.1683   10.3423 Cl     28  UNL28      -0.0870
    313 CL          5.5486    3.5979   10.3422 Cl     28  UNL28      -0.0870
    314 C           7.0534    2.8469    9.7848 C.3    28  UNL28       0.1805
    315 H           7.0535    2.8469    8.6918 H      28  UNL28       0.0806
    316 CL          8.4560    3.7746   13.4927 Cl     28  UNL28      -0.0870
    317 CL          7.1555    1.1683   13.4927 Cl     28  UNL28      -0.0870
    318 CL          5.5486    3.5979   13.4926 Cl     28  UNL28      -0.0870
    319 C           7.0534    2.8469   12.9352 C.3    28  UNL28       0.1805
    320 H           7.0535    2.8469   11.8422 H      28  UNL28       0.0806
    321 CL          8.4560    3.7746   18.6430 Cl     28  UNL28      -0.0870
    322 CL          7.1555    1.1683   18.6430 Cl     28  UNL28      -0.0870
    323 CL          5.5486    3.5979   18.6429 Cl     28  UNL28      -0.0870
    324 C           7.0534    2.8469   18.0855 C.3    28  UNL28       0.1805
    325 H           7.0535    2.8469   16.9925 H      28  UNL28       0.0806
    326 CL          8.4560    3.7746   21.7934 Cl     28  UNL28      -0.0870
    327 CL          7.1555    1.1683   21.7934 Cl     28  UNL28      -0.0870
    328 CL          5.5486    3.5979   21.7933 Cl     28  UNL28      -0.0870
    329 C           7.0534    2.8469   21.2359 C.3    28  UNL28       0.1805
    330 H           7.0535    2.8469   20.1429 H      28  UNL28       0.0806
    331 CL          8.4560    8.0458   -0.2591 Cl     28  UNL28      -0.0870
    332 CL          7.1555    5.4395   -0.2591 Cl     28  UNL28      -0.0870
    333 CL          5.5486    7.8691   -0.2592 Cl     28  UNL28      -0.0870
    334 C           7.0534    7.1181   -0.8166 C.3    28  UNL28       0.1805
    335 H           7.0535    7.1181   -1.9096 H      28  UNL28       0.0806
    336 CL          8.4560    8.0458    2.8913 Cl     28  UNL28      -0.0870
    337 CL          7.1555    5.4395    2.8913 Cl     28  UNL28      -0.0870
    338 CL          5.5486    7.8691    2.8912 Cl     28  UNL28      -0.0870
    339 C           7.0534    7.1181    2.3338 C.3    28  UNL28       0.1805
    340 H           7.0535    7.1181    1.2408 H      28  UNL28       0.0806
    341 CL          8.4560    8.0458    6.0416 Cl     28  UNL28      -0.0870
    342 CL          7.1555    5.4395    6.0416 Cl     28  UNL28      -0.0870
    343 CL          5.5486    7.8691    6.0415 Cl     28  UNL28      -0.0870
    344 C           7.0534    7.1181    5.4841 C.3    28  UNL28       0.1805
    345 H           7.0535    7.1181    4.3911 H      28  UNL28       0.0806
    346 CL          9.4560    8.0458    9.1920 Cl     28  UNL28      -0.0870
    347 CL          8.1555    5.4395    9.1920 Cl     28  UNL28      -0.0870
    348 CL          6.5486    7.8691    9.1919 Cl     28  UNL28      -0.0870
    349 C           8.0534    7.1181    8.6345 C.3    28  UNL28       0.1805
    350 H           8.0535    7.1181    7.5415 H      28  UNL28       0.0806
    351 CL          7.7543    5.9485   11.8423 Cl     28  UNL28      -0.0870
    352 CL          6.0070    8.2790   11.8423 Cl     28  UNL28      -0.0870
    353 CL          8.8991    8.6269   11.8422 Cl     28  UNL28      -0.0870
    354 C           7.5533    7.6181   11.2848 C.3    28  UNL28       0.1805
    355 H           7.5533    7.6180   10.1918 H      28  UNL28       0.0806
    356 CL          9.3723    7.7691   14.1238 Cl     28  UNL28      -0.0870
    357 CL          6.9107    6.2121   14.1043 Cl     28  UNL28      -0.0870
    358 CL          8.5519    6.3119   16.5087 Cl     28  UNL28      -0.0870
    359 C           7.9943    7.2110   15.0874 C.3    28  UNL28       0.1805
    360 H           7.4378    8.0867   15.4310 H      28  UNL28       0.0806
    361 CL          8.4560    8.0458   18.6430 Cl     28  UNL28      -0.0870
    362 CL          7.1555    5.4395   18.6430 Cl     28  UNL28      -0.0870
    363 CL          5.5486    7.8691   18.6429 Cl     28  UNL28      -0.0870
    364 C           7.0534    7.1181   18.0855 C.3    28  UNL28       0.1805
    365 H           7.0535    7.1181   16.9925 H      28  UNL28       0.0806
    366 CL          8.4560   12.3170   -0.2591 Cl     28  UNL28      -0.0870
    367 CL          7.1555    9.7107   -0.2591 Cl     28  UNL28      -0.0870
    368 CL          5.5486   12.1403   -0.2592 Cl     28  UNL28      -0.0870
    369 C           7.0534   11.3892   -0.8166 C.3    28  UNL28       0.1805
    370 H           7.0535   11.3893   -1.9096 H      28  UNL28       0.0806
    371 CL          8.4560   13.3170    2.8913 Cl     28  UNL28      -0.0870
    372 CL          7.1555   10.7107    2.8913 Cl     28  UNL28      -0.0870
    373 CL          5.5486   13.1403    2.8912 Cl     28  UNL28      -0.0870
    374 C           7.0534   12.3892    2.3338 C.3    28  UNL28       0.1805
    375 H           7.0535   12.3893    1.2408 H      28  UNL28       0.0806
    376 CL          8.4560   13.3170    6.0416 Cl     28  UNL28      -0.0870
    377 CL          7.1555   10.7107    6.0416 Cl     28  UNL28      -0.0870
    378 CL          5.5486   13.1403    6.0415 Cl     28  UNL28      -0.0870
    379 C           7.0534   12.3892    5.4841 C.3    28  UNL28       0.1805
    380 H           7.0535   12.3893    4.3911 H      28  UNL28       0.0806
    381 CL          8.4560   12.8170    9.1920 Cl     28  UNL28      -0.0870
    382 CL          7.1555   10.2107    9.1920 Cl     28  UNL28      -0.0870
    383 CL          5.5486   12.6403    9.1919 Cl     28  UNL28      -0.0870
    384 C           7.0534   11.8892    8.6345 C.3    28  UNL28       0.1805
    385 H           7.0535   11.8893    7.5415 H      28  UNL28       0.0806
    386 CL          8.4560   12.8170   12.3423 Cl     28  UNL28      -0.0870
    387 CL          7.1555   10.2107   12.3423 Cl     28  UNL28      -0.0870
    388 CL          5.5486   12.6403   12.3422 Cl     28  UNL28      -0.0870
    389 C           7.0534   11.8892   11.7848 C.3    28  UNL28       0.1805
    390 H           7.0535   11.8893   10.6918 H      28  UNL28       0.0806
    391 CL          5.2659   12.4711   15.4927 Cl     28  UNL28      -0.0870
    392 CL          8.1341   11.9634   15.4927 Cl     28  UNL28      -0.0870
    393 CL          6.2602    9.7333   15.4926 Cl     28  UNL28      -0.0870
    394 C           6.5535   11.3894   14.9352 C.3    28  UNL28       0.1805
    395 H           6.5534   11.3894   13.8422 H      28  UNL28       0.0806
    396 CL          8.4560   13.3170   18.6430 Cl     28  UNL28      -0.0870
    397 CL          7.1555   10.7107   18.6430 Cl     28  UNL28      -0.0870
    398 CL          5.5486   13.1403   18.6429 Cl     28  UNL28      -0.0870
    399 C           7.0534   12.3892   18.0855 C.3    28  UNL28       0.1805
    400 H           7.0535   12.3893   16.9925 H      28  UNL28       0.0806
    401 CL          8.4560   12.3170   21.7934 Cl     28  UNL28      -0.0870
    402 CL          7.1555    9.7107   21.7934 Cl     28  UNL28      -0.0870
    403 CL          5.5486   12.1403   21.7933 Cl     28  UNL28      -0.0870
    404 C           7.0534   11.3892   21.2359 C.3    28  UNL28       0.1805
    405 H           7.0535   11.3893   20.1429 H      28  UNL28       0.0806
    406 CL          8.4560   16.5882   -0.2591 Cl     28  UNL28      -0.0870
    407 CL          7.1555   13.9819   -0.2591 Cl     28  UNL28      -0.0870
    408 CL          5.5486   16.4115   -0.2592 Cl     28  UNL28      -0.0870
    409 C           7.0534   15.6604   -0.8166 C.3    28  UNL28       0.1805
    410 H           7.0535   15.6605   -1.9096 H      28  UNL28       0.0806
    411 CL          8.4560   17.0882    2.8913 Cl     28  UNL28      -0.0870
    412 CL          7.1555   14.4819    2.8913 Cl     28  UNL28      -0.0870
    413 CL          5.5486   16.9115    2.8912 Cl     28  UNL28      -0.0870
    414 C           7.0534   16.1604    2.3338 C.3    28  UNL28       0.1805
    415 H           7.0535   16.1605    1.2408 H      28  UNL28       0.0806
    416 CL          7.9560   17.0882    5.5416 Cl     28  UNL28      -0.0870
    417 CL          6.6555   14.4819    5.5416 Cl     28  UNL28      -0.0870
    418 CL          5.0486   16.9115    5.5415 Cl     28  UNL28      -0.0870
    419 C           6.5534   16.1604    4.9841 C.3    28  UNL28       0.1805
    420 H           6.5535   16.1605    3.8911 H      28  UNL28       0.0806
    421 CL          9.3723   16.3114    6.8231 Cl     28  UNL28      -0.0870
    422 CL          6.9107   14.7544    6.8036 Cl     28  UNL28      -0.0870
    423 CL          8.5519   14.8543    9.2080 Cl     28  UNL28      -0.0870
    424 C           7.9943   15.7533    7.7867 C.3    28  UNL28       0.1805
    425 H           7.4378   16.6291    8.1303 H      28  UNL28       0.0806
    426 CL          7.4572   14.4816   11.8423 Cl     28  UNL28      -0.0870
    427 CL          6.1475   17.0833   11.8423 Cl     28  UNL28      -0.0870
    428 CL          9.0556   16.9166   11.8422 Cl     28  UNL28      -0.0870
    429 C           7.5533   16.1605   11.2848 C.3    28  UNL28       0.1805
    430 H           7.5533   16.1604   10.1918 H      28  UNL28       0.0806
    431 CL          9.5352   16.3114   15.6861 Cl     28  UNL28      -0.0870
    432 CL          8.2587   14.7544   13.5813 Cl     28  UNL28      -0.0870
    433 CL          7.0750   14.8543   16.2410 Cl     28  UNL28      -0.0870
    434 C           7.9914   15.7533   15.0199 C.3    28  UNL28       0.1805
    435 H           7.4067   16.6291   14.7268 H      28  UNL28       0.0806
    436 CL          6.9572   14.4816   18.6430 Cl     28  UNL28      -0.0870
    437 CL          5.6475   17.0833   18.6430 Cl     28  UNL28      -0.0870
    438 CL          8.5556   16.9166   18.6429 Cl     28  UNL28      -0.0870
    439 C           7.0533   16.1605   18.0855 C.3    28  UNL28       0.1805
    440 H           7.0533   16.1604   16.9925 H      28  UNL28       0.0806
    441 CL          8.4560   16.5882   22.7934 Cl     28  UNL28      -0.0870
    442 CL          7.1555   13.9819   22.7934 Cl     28  UNL28      -0.0870
    443 CL          5.5486   16.4115   22.7933 Cl     28  UNL28      -0.0870
    444 C           7.0534   15.6604   22.2359 C.3    28  UNL28       0.1805
    445 H           7.0535   15.6605   21.1429 H      28  UNL28       0.0806
    446 CL          5.7659   21.0135    0.8913 Cl     28  UNL28      -0.0870
    447 CL          8.6341   20.5058    0.8913 Cl     28  UNL28      -0.0870
    448 CL          6.7602   18.2757    0.8912 Cl     28  UNL28      -0.0870
    449 C           7.0535   19.9317    0.3338 C.3    28  UNL28       0.1805
    450 H           7.0534   19.9318   -0.7592 H      28  UNL28       0.0806
    451 CL          8.4560   20.8594    4.0416 Cl     28  UNL28      -0.0870
    452 CL          7.1555   18.2531    4.0416 Cl     28  UNL28      -0.0870
    453 CL          5.5486   20.6827    4.0415 Cl     28  UNL28      -0.0870
    454 C           7.0534   19.9316    3.4841 C.3    28  UNL28       0.1805
    455 H           7.0535   19.9317    2.3911 H      28  UNL28       0.0806
    456 CL          5.7659   21.0135    7.1920 Cl     28  UNL28      -0.0870
    457 CL          8.6341   20.5058    7.1920 Cl     28  UNL28      -0.0870
    458 CL          6.7602   18.2757    7.1919 Cl     28  UNL28      -0.0870
    459 C           7.0535   19.9317    6.6345 C.3    28  UNL28       0.1805
    460 H           7.0534   19.9318    5.5415 H      28  UNL28       0.0806
    461 CL          7.4572   18.2528   10.3423 Cl     28  UNL28      -0.0870
    462 CL          6.1475   20.8545   10.3423 Cl     28  UNL28      -0.0870
    463 CL          9.0556   20.6878   10.3422 Cl     28  UNL28      -0.0870
    464 C           7.5533   19.9317    9.7848 C.3    28  UNL28       0.1805
    465 H           7.5533   19.9316    8.6918 H      28  UNL28       0.0806
    466 CL          8.4560   20.8594   13.4927 Cl     28  UNL28      -0.0870
    467 CL          7.1555   18.2531   13.4927 Cl     28  UNL28      -0.0870
    468 CL          5.5486   20.6827   13.4926 Cl     28  UNL28      -0.0870
    469 C           7.0534   19.9316   12.9352 C.3    28  UNL28       0.1805
    470 H           7.0535   19.9317   11.8422 H      28  UNL28       0.0806
    471 CL          8.4560   20.8594   16.6430 Cl     28  UNL28      -0.0870
    472 CL          7.1555   18.2531   16.6430 Cl     28  UNL28      -0.0870
    473 CL          5.5486   20.6827   16.6429 Cl     28  UNL28      -0.0870
    474 C           7.0534   19.9316   16.0855 C.3    28  UNL28       0.1805
    475 H           7.0535   19.9317   14.9925 H      28  UNL28       0.0806
    476 CL          8.4560   20.8594   19.7934 Cl     28  UNL28      -0.0870
    477 CL          7.1555   18.2531   19.7934 Cl     28  UNL28      -0.0870
    478 CL          5.5486   20.6827   19.7933 Cl     28  UNL28      -0.0870
    479 C           7.0534   19.9316   19.2359 C.3    28  UNL28       0.1805
    480 H           7.0535   19.9317   18.1429 H      28  UNL28       0.0806
@<TRIPOS>BOND
     1     1     4    1
     2     2     4    1
     3     3     4    1
     4     4     5    1
     5     6     9    1
     6     7     9    1
     7     8     9    1
     8     9    10    1
     9    11    14    1
    10    12    14    1
    11    13    14    1
    12    14    15    1
    13    16    19    1
    14    17    19    1
    15    18    19    1
    16    19    20    1
    17    21    24    1
    18    22    24    1
    19    23    24    1
    20    24    25    1
    21    26    29    1
    22    27    29    1
    23    28    29    1
    24    29    30    1
    25    31    34    1
    26    32    34    1
    27    33    34    1
    28    34    35    1
    29    36    39    1
    30    37    39    1
    31    38    39    1
    32    39    40    1
    33    41    44    1
    34    42    44    1
    35    43    44    1
    36    44    45    1
    37    46    49    1
    38    47    49    1
    39    48    49    1
    40    49    50    1
    41    51    54    1
    42    52    54    1
    43    53    54    1
    44    54    55    1
    45    56    59    1
    46    57    59    1
    47    58    59    1
    48    59    60    1
    49    61    64    1
    50    62    64    1
    51    63    64    1
    52    64    65    1
    53    66    69    1
    54    67    69    1
    55    68    69    1
    56    69    70    1
    57    71    74    1
    58    72    74    1
    59    73    74    1
    60    74    75    1
    61    76    79    1
    62    77    79    1
    63    78    79    1
    64    79    80    1
    65    81    84    1
    66    82    84    1
    67    83    84    1
    68    84    85    1
    69    86    89    1
    70    87    89    1
    71    88    89    1
    72    89    90    1
    73    91    94    1
    74    92    94    1
    75    93    94    1
    76    94    95    1
    77    96    99    1
    78    97    99    1
    79    98    99    1
    80    99   100    1
    81   101   104    1
    82   102   104    1
    83   103   104    1
    84   104   105    1
    85   106   109    1
    86   107   109    1
    87   108   109    1
    88   109   110    1
    89   111   114    1
    90   112   114    1
    91   113   114    1
    92   114   115    1
    93   116   119    1
    94   117   119    1
    95   118   119    1
    96   119   120    1
    97   121   124    1
    98   122   124    1
    99   123   124    1
   100   124   125    1
   101   126   129    1
   102   127   129    1
   103   128   129    1
   104   129   130    1
   105   131   134    1
   106   132   134    1
   107   133   134    1
   108   134   135    1
   109   136   139    1
   110   137   139    1
   111   138   139    1
   112   139   140    1
   113   141   144    1
   114   142   144    1
   115   143   144    1
   116   144   145    1
   117   146   149    1
   118   147   149    1
   119   148   149    1
   120   149   150    1
   121   151   154    1
   122   152   154    1
   123   153   154    1
   124   154   155    1
   125   156   159    1
   126   157   159    1
   127   158   159    1
   128   159   160    1
   129   161   164    1
   130   162   164    1
   131   163   164    1
   132   164   165    1
   133   166   169    1
   134   167   169    1
   135   168   169    1
   136   169   170    1
   137   171   174    1
   138   172   174    1
   139   173   174    1
   140   174   175    1
   141   176   179    1
   142   177   179    1
   143   178   179    1
   144   179   180    1
   145   181   184    1
   146   182   184    1
   147   183   184    1
   148   184   185    1
   149   186   189    1
   150   187   189    1
   151   188   189    1
   152   189   190    1
   153   191   194    1
   154   192   194    1
   155   193   194    1
   156   194   195    1
   157   196   199    1
   158   197   199    1
   159   198   199    1
   160   199   200    1
   161   201   204    1
   162   202   204    1
   163   203   204    1
   164   204   205    1
   165   206   209    1
   166   207   209    1
   167   208   209    1
   168   209   210    1
   169   211   214    1
   170   212   214    1
   171   213   214    1
   172   214   215    1
   173   216   219    1
   174   217   219    1
   175   218   219    1
   176   219   220    1
   177   221   224    1
   178   222   224    1
   179   223   224    1
   180   224   225    1
   181   226   229    1
   182   227   229    1
   183   228   229    1
   184   229   230    1
   185   231   234    1
   186   232   234    1
   187   233   234    1
   188   234   235    1
   189   236   239    1
   190   237   239    1
   191   238   239    1
   192   239   240    1
   193   241   244    1
   194   242   244    1
   195   243   244    1
   196   244   245    1
   197   246   249    1
   198   247   249    1
   199   248   249    1
   200   249   250    1
   201   251   254    1
   202   252   254    1
   203   253   254    1
   204   254   255    1
   205   256   259    1
   206   257   259    1
   207   258   259    1
   208   259   260    1
   209   261   264    1
   210   262   264    1
   211   263   264    1
   212   264   265    1
   213   266   269    1
   214   267   269    1
   215   268   269    1
   216   269   270    1
   217   271   274    1
   218   272   274    1
   219   273   274    1
   220   274   275    1
   221   276   279    1
   222   277   279    1
   223   278   279    1
   224   279   280    1
   225   281   284    1
   226   282   284    1
   227   283   284    1
   228   284   285    1
   229   286   289    1
   230   287   289    1
   231   288   289    1
   232   289   290    1
   233   291   294    1
   234   292   294    1
   235   293   294    1
   236   294   295    1
   237   296   299    1
   238   297   299    1
   239   298   299    1
   240   299   300    1
   241   301   304    1
   242   302   304    1
   243   303   304    1
   244   304   305    1
   245   306   309    1
   246   307   309    1
   247   308   309    1
   248   309   310    1
   249   311   314    1
   250   312   314    1
   251   313   314    1
   252   314   315    1
   253   316   319    1
   254   317   319    1
   255   318   319    1
   256   319   320    1
   257   321   324    1
   258   322   324    1
   259   323   324    1
   260   324   325    1
   261   326   329    1
   262   327   329    1
   263   328   329    1
   264   329   330    1
   265   331   334    1
   266   332   334    1
   267   333   334    1
   268   334   335    1
   269   336   339    1
   270   337   339    1
   271   338   339    1
   272   339   340    1
   273   341   344    1
   274   342   344    1
   275   343   344    1
   276   344   345    1
   277   346   349    1
   278   347   349    1
   279   348   349    1
   280   349   350    1
   281   351   354    1
   282   352   354    1
   283   353   354    1
   284   354   355    1
   285   356   359    1
   286   357   359    1
   287   358   359    1
   288   359   360    1
   289   361   364    1
   290   362   364    1
   291   363   364    1
   292   364   365    1
   293   366   369    1
   294   367   369    1
   295   368   369    1
   296   369   370    1
   297   371   374    1
   298   372   374    1
   299   373   374    1
   300   374   375    1
   301   376   379    1
   302   377   379    1
   303   378   379    1
   304   379   380    1
   305   381   384    1
   306   382   384    1
   307   383   384    1
   308   384   385    1
   309   386   389    1
   310   387   389    1
   311   388   389    1
   312   389   390    1
   313   391   394    1
   314   392   394    1
   315   393   394    1
   316   394   395    1
   317   396   399    1
   318   397   399    1
   319   398   399    1
   320   399   400    1
   321   401   404    1
   322   402   404    1
   323   403   404    1
   324   404   405    1
   325   406   409    1
   326   407   409    1
   327   408   409    1
   328   409   410    1
   329   411   414    1
   330   412   414    1
   331   413   414    1
   332   414   415    1
   333   416   419    1
   334   417   419    1
   335   418   419    1
   336   419   420    1
   337   421   424    1
   338   422   424    1
   339   423   424    1
   340   424   425    1
   341   426   429    1
   342   427   429    1
   343   428   429    1
   344   429   430    1
   345   431   434    1
   346   432   434    1
   347   433   434    1
   348   434   435    1
   349   436   439    1
   350   437   439    1
   351   438   439    1
   352   439   440    1
   353   441   444    1
   354   442   444    1
   355   443   444    1
   356   444   445    1
   357   446   449    1
   358   447   449    1
   359   448   449    1
   360   449   450    1
   361   451   454    1
   362   452   454    1
   363   453   454    1
   364   454   455    1
   365   456   459    1
   366   457   459    1
   367   458   459    1
   368   459   460    1
   369   461   464    1
   370   462   464    1
   371   463   464    1
   372   464   465    1
   373   466   469    1
   374   467   469    1
   375   468   469    1
   376   469   470    1
   377   471   474    1
   378   472   474    1
   379   473   474    1
   380   474   475    1
   381   476   479    1
   382   477   479    1
   383   478   479    1
   384   479   480    1
