@<TRIPOS>MOLECULE
*****
 75 60 0 0 0
SMALL
GASTEIGER

@<TRIPOS>ATOM
      1 CL         -2.8439   14.0017   11.8990 Cl      1  UNL1       -0.0870
      2 CL         -1.7807   11.3954   12.6480 Cl      1  UNL1       -0.0870
      3 CL         -0.4673   13.8250   13.5736 Cl      1  UNL1       -0.0870
      4 C          -2.0184   13.0739   13.1625 C.3     1  UNL1        0.1805
      5 H          -2.6480   13.0740   14.0560 H       1  UNL1        0.0806
      6 CL          2.9711    0.7940    4.6142 Cl      2  UNL2       -0.0870
      7 CL          3.4254   -2.0419    4.1289 Cl      2  UNL2       -0.0870
      8 CL          0.7098   -1.0330    4.4332 Cl      2  UNL2       -0.0870
      9 C           2.3406   -0.6708    3.8426 C.3     2  UNL2        0.1805
     10 H           2.2851   -0.4952    2.7652 H       2  UNL2        0.0806
     11 CL          0.7989   -0.1414   13.5094 Cl      3  UNL3       -0.0870
     12 CL          3.6901    0.2118   13.5094 Cl      3  UNL3       -0.0870
     13 CL          2.5502   -2.4688   13.5093 Cl      3  UNL3       -0.0870
     14 C           2.3465   -0.7993   12.9519 C.3     3  UNL3        0.1805
     15 H           2.3464   -0.7993   11.8589 H       3  UNL3        0.0806
     16 CL          3.3586    4.2374   -0.2345 Cl      4  UNL4       -0.0870
     17 CL          0.7845    3.9838   -1.5739 Cl      4  UNL4       -0.0870
     18 CL          2.1928    1.6026   -0.6621 Cl      4  UNL4       -0.0870
     19 C           1.8524    3.3096   -0.3314 C.3     4  UNL4        0.1805
     20 H           1.3437    3.3782    0.6336 H       4  UNL4        0.0806
     21 CL          2.1402    3.7334    9.2289 Cl      5  UNL5       -0.0870
     22 CL          0.8305    6.3351    9.2289 Cl      5  UNL5       -0.0870
     23 CL          3.7386    6.1684    9.2288 Cl      5  UNL5       -0.0870
     24 C           2.2363    5.4123    8.6714 C.3     5  UNL5        0.1805
     25 H           2.2363    5.4122    7.5784 H       5  UNL5        0.0806
     26 CL          4.1451    3.6582   13.5094 Cl      6  UNL6       -0.0870
     27 CL          1.7834    5.3631   13.5094 Cl      6  UNL6       -0.0870
     28 CL          4.4409    6.5559   13.5093 Cl      6  UNL6       -0.0870
     29 C           3.4563    5.1923   12.9519 C.3     6  UNL6        0.1805
     30 H           3.4564    5.1922   11.8589 H       6  UNL6        0.0806
     31 CL          0.7967    5.9402   18.0374 Cl      7  UNL7       -0.0870
     32 CL          2.2563    3.4908   17.4423 Cl      7  UNL7       -0.0870
     33 CL          3.3846    6.0737   16.7072 Cl      7  UNL7       -0.0870
     34 C           2.3990    5.1986   17.8914 C.3     7  UNL7        0.1805
     35 H           2.8955    5.2584   18.8633 H       7  UNL7        0.0806
     36 CL          1.1683    8.1051    0.0079 Cl      8  UNL8       -0.0870
     37 CL          1.6456   10.9785    0.0079 Cl      8  UNL8       -0.0870
     38 CL          3.8955    9.1284    0.0078 Cl      8  UNL8       -0.0870
     39 C           2.2364    9.4041   -0.5496 C.3     8  UNL8        0.1805
     40 H           2.2363    9.4040   -1.6426 H       8  UNL8        0.0806
     41 CL          3.6274   10.6952    3.1289 Cl      9  UNL9       -0.0870
     42 CL          1.3717   12.5373    3.1788 Cl      9  UNL9       -0.0870
     43 CL          1.4220   10.2472    4.9781 Cl      9  UNL9       -0.0870
     44 C           2.4005   11.4681    4.1468 C.3     9  UNL9        0.1805
     45 H           2.9106   12.0722    4.9014 H       9  UNL9        0.0806
     46 CL          2.1454   15.7261    4.7284 Cl     10  UNL10      -0.0870
     47 CL          1.0010   18.4047    4.7284 Cl     10  UNL10      -0.0870
     48 CL          3.8930   18.0563    4.7283 Cl     10  UNL10      -0.0870
     49 C           2.3463   17.3957    4.1709 C.3    10  UNL10       0.1805
     50 H           2.3463   17.3956    3.0779 H      10  UNL10       0.0806
     51 CL          2.5473   15.7261   13.5094 Cl     11  UNL11      -0.0870
     52 CL          0.8000   18.0566   13.5094 Cl     11  UNL11      -0.0870
     53 CL          3.6921   18.4045   13.5093 Cl     11  UNL11      -0.0870
     54 C           2.3463   17.3957   12.9519 C.3    11  UNL11       0.1805
     55 H           2.3464   17.3956   11.8589 H      11  UNL11       0.0806
     56 CL          1.7469   24.4235    1.1520 Cl     12  UNL12      -0.0870
     57 CL          2.7285   23.4161   -1.3987 Cl     12  UNL12      -0.0870
     58 CL          0.9376   21.7854    0.2196 Cl     12  UNL12      -0.0870
     59 C           1.3652   23.4344   -0.2674 C.3    12  UNL12       0.1805
     60 H           0.5039   23.8777   -0.7738 H      12  UNL12       0.0806
     61 CL          2.8590   24.6451    9.2289 Cl     13  UNL13      -0.0870
     62 CL          1.5585   22.0388    9.2289 Cl     13  UNL13      -0.0870
     63 CL         -0.0484   24.4684    9.2288 Cl     13  UNL13      -0.0870
     64 C           1.4565   23.7173    8.6714 C.3    13  UNL13       0.1805
     65 H           1.4565   23.7174    7.5784 H      13  UNL13       0.0806
     66 CL          3.4781   24.9463   13.9623 Cl     14  UNL14      -0.0870
     67 CL          3.4587   22.0336   13.9453 Cl     14  UNL14      -0.0870
     68 CL          1.5700   23.5124   12.2928 Cl     14  UNL14      -0.0870
     69 C           3.2028   23.4974   12.9806 C.3    14  UNL14       0.1805
     70 H           3.9225   23.4975   12.1580 H      14  UNL14       0.0806
     71 CL          0.9279   22.2006   17.2741 Cl     15  UNL15      -0.0870
     72 CL         -1.2413   24.0283   17.9359 Cl     15  UNL15      -0.0870
     73 CL          1.4519   24.5487   18.9160 Cl     15  UNL15      -0.0870
     74 C           0.4892   23.8891   17.5829 C.3    15  UNL15       0.1805
     75 H           0.7045   24.4704   16.6827 H      15  UNL15       0.0806
@<TRIPOS>BOND
     1     1     4    1
     2     2     4    1
     3     3     4    1
     4     4     5    1
     5     6     9    1
     6     7     9    1
     7     8     9    1
     8     9    10    1
     9    11    14    1
    10    12    14    1
    11    13    14    1
    12    14    15    1
    13    16    19    1
    14    17    19    1
    15    18    19    1
    16    19    20    1
    17    21    24    1
    18    22    24    1
    19    23    24    1
    20    24    25    1
    21    26    29    1
    22    27    29    1
    23    28    29    1
    24    29    30    1
    25    31    34    1
    26    32    34    1
    27    33    34    1
    28    34    35    1
    29    36    39    1
    30    37    39    1
    31    38    39    1
    32    39    40    1
    33    41    44    1
    34    42    44    1
    35    43    44    1
    36    44    45    1
    37    46    49    1
    38    47    49    1
    39    48    49    1
    40    49    50    1
    41    51    54    1
    42    52    54    1
    43    53    54    1
    44    54    55    1
    45    56    59    1
    46    57    59    1
    47    58    59    1
    48    59    60    1
    49    61    64    1
    50    62    64    1
    51    63    64    1
    52    64    65    1
    53    66    69    1
    54    67    69    1
    55    68    69    1
    56    69    70    1
    57    71    74    1
    58    72    74    1
    59    73    74    1
    60    74    75    1
