@<TRIPOS>MOLECULE
*****
 100 80 0 0 0
SMALL
GASTEIGER

@<TRIPOS>ATOM
      1 CL         -0.8663   -0.1169   -2.1548 Cl      1  UNL1       -0.0870
      2 CL         -2.3497    2.0417   -0.8805 Cl      1  UNL1       -0.0870
      3 CL          0.5500    1.9215   -0.6306 Cl      1  UNL1       -0.0870
      4 C          -0.8362    1.5906   -1.6833 C.3     1  UNL1        0.1805
      5 H          -0.7332    2.1953   -2.5879 H       1  UNL1        0.0806
      6 CL         -1.8697    4.3387    2.6264 Cl      2  UNL2       -0.0870
      7 CL         -2.8772    6.9462    1.8078 Cl      2  UNL2       -0.0870
      8 CL         -0.5819    5.7787    0.4464 Cl      2  UNL2       -0.0870
      9 C          -2.1182    5.4413    1.2621 C.3     2  UNL2        0.1805
     10 H          -2.7884    4.9577    0.5468 H       2  UNL2        0.0806
     11 CL         -0.2624   10.9781    1.5224 Cl      3  UNL3       -0.0870
     12 CL         -0.0424    8.0743    1.4612 Cl      3  UNL3       -0.0870
     13 CL         -2.5382    9.3288    2.2870 Cl      3  UNL3       -0.0870
     14 C          -1.1236    9.4581    1.2279 C.3     3  UNL3        0.1805
     15 H          -1.4689    9.4539    0.1909 H       3  UNL3        0.0806
     16 CL         -2.3109   15.1535    2.1130 Cl      4  UNL4       -0.0870
     17 CL         -0.9161   12.9899    0.7500 Cl      4  UNL4       -0.0870
     18 CL         -0.2167   15.7598    0.1813 Cl      4  UNL4       -0.0870
     19 C          -0.7682   14.6222    1.4227 C.3     4  UNL4        0.1805
     20 H          -0.0236   14.5984    2.2225 H       4  UNL4        0.0806
     21 CL         -1.8801   19.6151    2.4051 Cl      5  UNL5       -0.0870
     22 CL          0.4933   19.3553    0.7368 Cl      5  UNL5       -0.0870
     23 CL         -0.4020   17.1058    2.3563 Cl      5  UNL5       -0.0870
     24 C          -0.9129   18.5138    1.4100 C.3     5  UNL5        0.1805
     25 H          -1.5338   18.1643    0.5812 H       5  UNL5        0.0806
     26 CL         -1.5111    0.2928    0.4745 Cl      6  UNL6       -0.0870
     27 CL          1.0126    1.1122    1.6760 Cl      6  UNL6       -0.0870
     28 CL         -0.8440    3.1210    0.6748 Cl      6  UNL6       -0.0870
     29 C          -0.6928    1.5311    1.4419 C.3     6  UNL6        0.1805
     30 H          -1.1739    1.5751    2.4223 H       6  UNL6        0.0806
     31 CL          1.9975    3.5774    0.6306 Cl      7  UNL7       -0.0870
     32 CL          4.8394    3.3887    1.2406 Cl      7  UNL7       -0.0870
     33 CL          3.3126    0.9785    0.6534 Cl      7  UNL7       -0.0870
     34 C           3.5032    2.7042    0.3000 C.3     7  UNL7        0.1805
     35 H           3.7383    2.8139   -0.7618 H       7  UNL7        0.0806
     36 CL          2.5315    7.7807   -1.9725 Cl      8  UNL8       -0.0870
     37 CL          0.9327    5.3841   -1.5433 Cl      8  UNL8       -0.0870
     38 CL          3.0393    6.0865    0.3418 Cl      8  UNL8       -0.0870
     39 C           1.8021    6.7143   -0.7602 C.3     8  UNL8        0.1805
     40 H           1.0853    7.2972   -0.1763 H       8  UNL8        0.0806
     41 CL          1.4901   10.3828    0.1925 Cl      9  UNL9       -0.0870
     42 CL          4.2472   11.3000    0.3949 Cl      9  UNL9       -0.0870
     43 CL          3.4263    8.8469    1.7340 Cl      9  UNL9       -0.0870
     44 C           3.1854    9.8840    0.3177 C.3     9  UNL9        0.1805
     45 H           3.4419    9.3100   -0.5764 H       9  UNL9        0.0806
     46 CL          0.3582   18.6799   -1.7127 Cl     10  UNL10      -0.0870
     47 CL          0.8790   15.8292   -2.0069 Cl     10  UNL10      -0.0870
     48 CL          3.0462   17.7475   -2.3367 Cl     10  UNL10      -0.0870
     49 C           1.5419   17.3835   -1.4742 C.3    10  UNL10       0.1805
     50 H           1.7656   17.3143   -0.4066 H      10  UNL10       0.0806
     51 CL          3.9032   18.1650   -0.0852 Cl     11  UNL11      -0.0870
     52 CL          2.0917   18.1527    2.1958 Cl     11  UNL11      -0.0870
     53 CL          2.4786   15.7271    0.6300 Cl     11  UNL11      -0.0870
     54 C           3.2457   17.2001    1.2473 C.3    11  UNL11       0.1805
     55 H           4.0716   16.9095    1.9015 H      11  UNL11       0.0806
     56 CL          6.8144    2.3807    2.4104 Cl     12  UNL12      -0.0870
     57 CL          8.9490    2.5639    0.4371 Cl     12  UNL12      -0.0870
     58 CL          8.6838    0.1718    2.0780 Cl     12  UNL12      -0.0870
     59 C           7.8138    1.4795    1.2581 C.3    12  UNL12       0.1805
     60 H           7.1562    1.0363    0.5058 H      12  UNL12       0.0806
     61 CL          5.3662    7.8124    1.9835 Cl     13  UNL13      -0.0870
     62 CL          5.0811   10.6336    2.6496 Cl     13  UNL13      -0.0870
     63 CL          7.2567    9.7575    0.9221 Cl     13  UNL13      -0.0870
     64 C           5.5757    9.4738    1.4051 C.3    13  UNL13       0.1805
     65 H           4.9376    9.6160    0.5292 H      13  UNL13       0.0806
     66 CL          8.0681   14.1750    0.3509 Cl     14  UNL14      -0.0870
     67 CL          5.6750   14.2188    2.0107 Cl     14  UNL14      -0.0870
     68 CL          6.4288   11.7809    0.6060 Cl     14  UNL14      -0.0870
     69 C           7.0263   13.2315    1.4294 C.3    14  UNL14       0.1805
     70 H           7.6191   12.9176    2.2923 H      14  UNL14       0.0806
     71 CL          7.0545   16.3546    1.8592 Cl     15  UNL15      -0.0870
     72 CL          7.4787   18.9286    0.5634 Cl     15  UNL15      -0.0870
     73 CL          9.3814   17.9657    2.5477 Cl     15  UNL15      -0.0870
     74 C           8.2643   17.4987    1.2542 C.3    15  UNL15       0.1805
     75 H           8.8384   17.0067    0.4649 H      15  UNL15       0.0806
     76 CL          4.8535   22.8270    2.1386 Cl     16  UNL16      -0.0870
     77 CL          4.0606   20.6480    0.3758 Cl     16  UNL16      -0.0870
     78 CL          6.8534   21.4632    0.5186 Cl     16  UNL16      -0.0870
     79 C           5.3411   21.2811    1.4237 C.3    16  UNL16       0.1805
     80 H           5.5086   20.5656    2.2328 H      16  UNL16       0.0806
     81 CL         12.4103    7.0243    0.1285 Cl     17  UNL17      -0.0870
     82 CL         12.5109    4.1343    0.4774 Cl     17  UNL17      -0.0870
     83 CL          9.9442    5.4747    0.1608 Cl     17  UNL17      -0.0870
     84 C          11.6558    5.4789   -0.2970 C.3    17  UNL17       0.1805
     85 H          11.7223    5.3505   -1.3804 H      17  UNL17       0.0806
     86 CL         12.9617   14.4707    0.5907 Cl     18  UNL18      -0.0870
     87 CL         11.1985   12.2889    1.3749 Cl     18  UNL18      -0.0870
     88 CL         10.2990   14.2606   -0.5714 Cl     18  UNL18      -0.0870
     89 C          11.6913   13.3595    0.0522 C.3    18  UNL18       0.1805
     90 H          12.0930   12.7441   -0.7570 H      18  UNL18       0.0806
     91 CL         13.2744   17.9229    1.0895 Cl     19  UNL19      -0.0870
     92 CL         11.0327   16.2841    1.9690 Cl     19  UNL19      -0.0870
     93 CL         10.5515   18.6817    0.3864 Cl     19  UNL19      -0.0870
     94 C          11.6563   17.3282    0.6807 C.3    19  UNL19       0.1805
     95 H          11.7286   16.7375   -0.2361 H      19  UNL19       0.0806
     96 CL         13.2102   22.1207    1.2994 Cl     20  UNL20      -0.0870
     97 CL         11.5204   20.0823    2.5134 Cl     20  UNL20      -0.0870
     98 CL         10.3204   22.4784    1.3718 Cl     20  UNL20      -0.0870
     99 C          11.6395   21.3035    1.2355 C.3    20  UNL20       0.1805
    100 H          11.5530   20.7999    0.2693 H      20  UNL20       0.0806
@<TRIPOS>BOND
     1     1     4    1
     2     2     4    1
     3     3     4    1
     4     4     5    1
     5     6     9    1
     6     7     9    1
     7     8     9    1
     8     9    10    1
     9    11    14    1
    10    12    14    1
    11    13    14    1
    12    14    15    1
    13    16    19    1
    14    17    19    1
    15    18    19    1
    16    19    20    1
    17    21    24    1
    18    22    24    1
    19    23    24    1
    20    24    25    1
    21    26    29    1
    22    27    29    1
    23    28    29    1
    24    29    30    1
    25    31    34    1
    26    32    34    1
    27    33    34    1
    28    34    35    1
    29    36    39    1
    30    37    39    1
    31    38    39    1
    32    39    40    1
    33    41    44    1
    34    42    44    1
    35    43    44    1
    36    44    45    1
    37    46    49    1
    38    47    49    1
    39    48    49    1
    40    49    50    1
    41    51    54    1
    42    52    54    1
    43    53    54    1
    44    54    55    1
    45    56    59    1
    46    57    59    1
    47    58    59    1
    48    59    60    1
    49    61    64    1
    50    62    64    1
    51    63    64    1
    52    64    65    1
    53    66    69    1
    54    67    69    1
    55    68    69    1
    56    69    70    1
    57    71    74    1
    58    72    74    1
    59    73    74    1
    60    74    75    1
    61    76    79    1
    62    77    79    1
    63    78    79    1
    64    79    80    1
    65    81    84    1
    66    82    84    1
    67    83    84    1
    68    84    85    1
    69    86    89    1
    70    87    89    1
    71    88    89    1
    72    89    90    1
    73    91    94    1
    74    92    94    1
    75    93    94    1
    76    94    95    1
    77    96    99    1
    78    97    99    1
    79    98    99    1
    80    99   100    1
