@<TRIPOS>MOLECULE
*****
 1865 1492 0 0 0
SMALL
GASTEIGER

@<TRIPOS>ATOM
      1 CL         -1.8702    1.9947    0.5839 Cl      1  UNL1       -0.0870
      2 CL         -0.5042   -0.2764   -0.6247 Cl      1  UNL1       -0.0870
      3 CL          0.6210    1.0146    1.7316 Cl      1  UNL1       -0.0870
      4 C          -0.8721    0.5635    0.8912 C.3     1  UNL1        0.1805
      5 H          -1.4361   -0.1175    1.5337 H       1  UNL1        0.0806
      6 CL          0.5134    0.4296    8.9281 Cl      2  UNL2       -0.0870
      7 CL         -2.0423   -0.7783    8.2254 Cl      2  UNL2       -0.0870
      8 CL         -1.4613    1.9644    7.4350 Cl      2  UNL2       -0.0870
      9 C          -0.7781    0.3542    7.7176 C.3     2  UNL2        0.1805
     10 H          -0.3493   -0.0069    6.7794 H       2  UNL2        0.0806
     11 CL          0.2985    1.7098   11.6460 Cl      3  UNL3       -0.0870
     12 CL         -0.9915   -0.9017   11.6282 Cl      3  UNL3       -0.0870
     13 CL         -2.3392    1.3804   12.8367 Cl      3  UNL3       -0.0870
     14 C          -1.2470    0.8495   11.5465 C.3     3  UNL3        0.1805
     15 H          -1.7104    1.0850   10.5850 H       3  UNL3        0.0806
     16 CL         -2.7957   -0.8044   17.3020 Cl      4  UNL4       -0.0870
     17 CL         -2.2125    1.6614   15.8654 Cl      4  UNL4       -0.0870
     18 CL         -0.8090   -0.7951   15.1719 Cl      4  UNL4       -0.0870
     19 C          -2.3366   -0.1015   15.7419 C.3     4  UNL4        0.1805
     20 H          -3.1159   -0.3414   15.0140 H       4  UNL4        0.0806
     21 CL          0.7740    0.8231   22.2441 Cl      5  UNL5       -0.0870
     22 CL         -1.5971    0.1567   20.6892 Cl      5  UNL5       -0.0870
     23 CL         -1.6786    2.3535   22.6003 Cl      5  UNL5       -0.0870
     24 C          -0.6714    1.4644   21.4451 C.3     5  UNL5        0.1805
     25 H          -0.3526    2.1573   20.6622 H       5  UNL5        0.0806
     26 CL         -0.2522    1.9154   25.2472 Cl      6  UNL6       -0.0870
     27 CL          0.1233   -0.9630   25.4873 Cl      6  UNL6       -0.0870
     28 CL         -2.5017    0.2078   25.9600 Cl      6  UNL6       -0.0870
     29 C          -1.0014    0.3254   25.0249 C.3     6  UNL6        0.1805
     30 H          -1.2456    0.2054   23.9663 H       6  UNL6        0.0806
     31 CL          0.6466    2.4905   28.5693 Cl      7  UNL7       -0.0870
     32 CL          1.0861   -0.3093   29.2417 Cl      7  UNL7       -0.0870
     33 CL         -1.6227    0.7572   29.1438 Cl      7  UNL7       -0.0870
     34 C           0.0032    0.8445   28.4451 C.3     7  UNL7        0.1805
     35 H          -0.0627    0.5801   27.3866 H       7  UNL7        0.0806
     36 CL          0.7270    1.4394   31.9947 Cl      8  UNL8       -0.0870
     37 CL          0.1728   -0.9722   33.5312 Cl      8  UNL8       -0.0870
     38 CL         -2.0176    0.5212   32.3242 Cl      8  UNL8       -0.0870
     39 C          -0.3258    0.0233   32.1532 C.3     8  UNL8        0.1805
     40 H          -0.2341   -0.5767   31.2442 H       8  UNL8        0.0806
     41 CL          1.2447    6.4060    0.2064 Cl      9  UNL9       -0.0870
     42 CL          0.7457    3.9981    1.7675 Cl      9  UNL9       -0.0870
     43 CL         -1.4862    5.4872    0.6336 Cl      9  UNL9       -0.0870
     44 C           0.1989    4.9897    0.4051 C.3     9  UNL9        0.1805
     45 H           0.2593    4.3874   -0.5049 H       9  UNL9        0.0806
     46 CL         -2.0816    4.9172    7.8609 Cl     10  UNL10      -0.0870
     47 CL          0.1901    6.6979    8.2516 Cl     10  UNL10      -0.0870
     48 CL          0.4684    3.8458    8.7738 Cl     10  UNL10      -0.0870
     49 C          -0.3193    5.0720    7.7662 C.3    10  UNL10       0.1805
     50 H          -0.0152    4.9116    6.7287 H      10  UNL10       0.0806
     51 CL         -2.7511    6.3043   11.3730 Cl     11  UNL11      -0.0870
     52 CL         -2.3459    3.5857   10.4090 Cl     11  UNL11      -0.0870
     53 CL         -0.0692    5.1703   11.2981 Cl     11  UNL11      -0.0870
     54 C          -1.7896    4.8262   11.5450 C.3    11  UNL11       0.1805
     55 H          -1.9219    4.4462   12.5612 H      11  UNL11       0.0806
     56 CL          0.3829    6.8344   13.6252 Cl     12  UNL12      -0.0870
     57 CL         -0.7157    4.4041   14.7960 Cl     12  UNL12      -0.0870
     58 CL         -1.3276    6.9954   15.9773 Cl     12  UNL12      -0.0870
     59 C          -1.0014    6.1220   14.4707 C.3    12  UNL12       0.1805
     60 H          -1.8798    6.2085   13.8259 H      12  UNL12       0.0806
     61 CL          1.6278    6.9076   18.1274 Cl     13  UNL13      -0.0870
     62 CL          1.0748    4.3044   19.3113 Cl     13  UNL13      -0.0870
     63 CL         -1.1143    6.1389   18.7390 Cl     13  UNL13      -0.0870
     64 C           0.4778    5.5629   18.2166 C.3    13  UNL13       0.1805
     65 H           0.3763    5.1304   17.2180 H      13  UNL13       0.0806
     66 CL          1.1901    7.0611   22.7166 Cl     14  UNL14      -0.0870
     67 CL         -0.5752    5.0736   21.5259 Cl     14  UNL14      -0.0870
     68 CL         -1.6758    7.5604   22.5695 Cl     14  UNL14      -0.0870
     69 C          -0.2863    6.8041   21.7716 C.3    14  UNL14       0.1805
     70 H          -0.1544    7.2732   20.7932 H      14  UNL14       0.0806
     71 CL          0.0841    5.6745   25.1125 Cl     15  UNL15      -0.0870
     72 CL         -2.0988    3.9065   25.8826 Cl     15  UNL15      -0.0870
     73 CL         -2.6608    6.6481   25.0746 Cl     15  UNL15      -0.0870
     74 C          -1.6103    5.2430   24.8271 C.3    15  UNL15       0.1805
     75 H          -1.7118    4.9163   23.7891 H      15  UNL15       0.0806
     76 CL          0.0756    6.7214   28.8775 Cl     16  UNL16      -0.0870
     77 CL         -1.6561    4.3830   29.0086 Cl     16  UNL16      -0.0870
     78 CL         -2.8156    7.0551   28.9939 Cl     16  UNL16      -0.0870
     79 C          -1.4893    6.0396   28.4032 C.3    16  UNL16       0.1805
     80 H          -1.5362    6.0133   27.3115 H      16  UNL16       0.0806
     81 CL         -0.1055    4.7233   31.6517 Cl     17  UNL17      -0.0870
     82 CL         -1.8344    3.9820   33.8756 Cl     17  UNL17      -0.0870
     83 CL         -2.8868    5.5878   31.6850 Cl     17  UNL17      -0.0870
     84 C          -1.7566    4.2994   32.1343 C.3    17  UNL17       0.1805
     85 H          -2.0462    3.3879   31.6052 H      17  UNL17       0.0806
     86 CL         -0.6425    9.1572    0.5111 Cl     18  UNL18      -0.0870
     87 CL         -1.0004   11.9718    1.1704 Cl     18  UNL18      -0.0870
     88 CL          1.6623   10.7918    1.2182 Cl     18  UNL18      -0.0870
     89 C           0.0756   10.7748    0.4300 C.3    18  UNL18       0.1805
     90 H           0.2114   11.0384   -0.6220 H      18  UNL18       0.0806
     91 CL         -1.8499   10.9696    6.4578 Cl     19  UNL19      -0.0870
     92 CL          0.3977    9.1189    6.3716 Cl     19  UNL19      -0.0870
     93 CL          0.4546   11.3957    8.1875 Cl     19  UNL19      -0.0870
     94 C          -0.5726   10.1846    7.4018 C.3    19  UNL19       0.1805
     95 H          -1.0434    9.5768    8.1787 H      19  UNL19       0.0806
     96 CL         -1.6304   11.5808   10.1624 Cl     20  UNL20      -0.0870
     97 CL         -2.7565    8.9154    9.8280 Cl     20  UNL20      -0.0870
     98 CL          0.0823    9.2364   10.3967 Cl     20  UNL20      -0.0870
     99 C          -1.5418    9.8875   10.6756 C.3    20  UNL20       0.1805
    100 H          -1.7513    9.8416   11.7474 H      20  UNL20       0.0806
    101 CL          0.0869    9.4089   15.1602 Cl     21  UNL21      -0.0870
    102 CL         -0.9517   11.5115   13.4327 Cl     21  UNL21      -0.0870
    103 CL         -2.5406    9.1226   13.9361 Cl     21  UNL21      -0.0870
    104 C          -1.3679   10.2624   14.6180 C.3    21  UNL21       0.1805
    105 H          -1.8243   10.7484   15.4841 H      21  UNL21       0.0806
    106 CL         -2.9980    9.2217   17.2822 Cl     22  UNL22      -0.0870
    107 CL         -2.8390    8.9127   20.1742 Cl     22  UNL22      -0.0870
    108 CL         -0.4183    9.3865   18.6247 Cl     22  UNL22      -0.0870
    109 C          -2.1528    9.7234   18.7562 C.3    22  UNL22       0.1805
    110 H          -2.2854   10.8015   18.8786 H      22  UNL22       0.0806
    111 CL         -1.0000   11.8477   21.3685 Cl     23  UNL23      -0.0870
    112 CL          0.8846    9.6279   21.2978 Cl     23  UNL23      -0.0870
    113 CL          1.7609   12.3065   20.5614 Cl     23  UNL23      -0.0870
    114 C           0.6868   11.3612   21.6065 C.3    23  UNL23       0.1805
    115 H           0.9581   11.5585   22.6468 H      23  UNL23       0.0806
    116 CL         -1.6642   12.3263   24.6918 Cl     24  UNL24      -0.0870
    117 CL         -3.0386   10.2200   23.2224 Cl     24  UNL24      -0.0870
    118 CL         -0.3996    9.7245   24.3517 Cl     24  UNL24      -0.0870
    119 C          -1.9366   10.5805   24.5620 C.3    24  UNL24       0.1805
    120 H          -2.3986   10.2346   25.4902 H      24  UNL24       0.0806
    121 CL         -1.0011    9.1354   27.2274 Cl     25  UNL25      -0.0870
    122 CL          0.4661   10.0653   29.5655 Cl     25  UNL25      -0.0870
    123 CL          0.2213   11.7792   27.2230 Cl     25  UNL25      -0.0870
    124 C          -0.5739   10.5439   28.2134 C.3    25  UNL25       0.1805
    125 H          -1.4940   10.9700   28.6213 H      25  UNL25       0.0806
    126 CL         -0.0170   10.8235   37.2538 Cl     26  UNL26      -0.0870
    127 CL          0.5028    8.8202   35.2042 Cl     26  UNL26      -0.0870
    128 CL         -2.2387    9.5438   35.8717 Cl     26  UNL26      -0.0870
    129 C          -0.5732   10.1291   35.7218 C.3    26  UNL26       0.1805
    130 H          -0.5515   10.9134   34.9608 H      26  UNL26       0.0806
    131 CL          0.3393   13.8959    6.4136 Cl     27  UNL27      -0.0870
    132 CL          1.2740   15.1934    8.8481 Cl     27  UNL27      -0.0870
    133 CL         -1.2693   15.9774    7.6641 Cl     27  UNL27      -0.0870
    134 C          -0.1466   14.6364    7.9479 C.3    27  UNL27       0.1805
    135 H          -0.6591   13.8800    8.5477 H      27  UNL27       0.0806
    136 CL         -2.6602   14.6776    9.9732 Cl     28  UNL28      -0.0870
    137 CL         -3.0063   13.6098   12.6609 Cl     28  UNL28      -0.0870
    138 CL         -0.3286   14.0220   11.5911 Cl     28  UNL28      -0.0870
    139 C          -1.9958   14.6211   11.6146 C.3    28  UNL28       0.1805
    140 H          -1.9907   15.6367   12.0186 H      28  UNL28       0.0806
    141 CL          0.1794   12.3359   16.3770 Cl     28  UNL28      -0.0870
    142 CL          1.1718   14.0414   14.2344 Cl     28  UNL28      -0.0870
    143 CL         -1.5578   14.3568   15.2013 Cl     28  UNL28      -0.0870
    144 C           0.1076   13.9489   15.6478 C.3    28  UNL28       0.1805
    145 H           0.4534   14.6761   16.3869 H      28  UNL28       0.0806
    146 CL         -2.2629   15.5743   17.8883 Cl     28  UNL28      -0.0870
    147 CL         -2.7550   12.7462   17.3950 Cl     28  UNL28      -0.0870
    148 CL         -0.4233   13.5722   18.9331 Cl     28  UNL28      -0.0870
    149 C          -2.1130   13.9344   18.5416 C.3    28  UNL28       0.1805
    150 H          -2.6994   13.8759   19.4620 H      28  UNL28       0.0806
    151 CL         -0.2151   16.2860   21.7295 Cl     28  UNL28      -0.0870
    152 CL         -1.9838   14.0387   22.2821 Cl     28  UNL28      -0.0870
    153 CL         -3.0772   16.7278   22.0416 Cl     28  UNL28      -0.0870
    154 C          -1.8304   15.6059   21.4704 C.3    28  UNL28       0.1805
    155 H          -1.9710   15.4528   20.3974 H      28  UNL28       0.0806
    156 CL         -2.0480   15.8731   25.2845 Cl     28  UNL28      -0.0870
    157 CL          0.3241   17.0848   26.4630 Cl     28  UNL28      -0.0870
    158 CL          0.4905   14.4455   25.2420 Cl     28  UNL28      -0.0870
    159 C          -0.2874   16.0359   25.1729 C.3    28  UNL28       0.1805
    160 H          -0.0449   16.4958   24.2115 H      28  UNL28       0.0806
    161 CL         -1.7841   16.1574   28.5094 Cl     28  UNL28      -0.0870
    162 CL          0.7606   14.7401   28.4979 Cl     28  UNL28      -0.0870
    163 CL         -1.5959   13.4930   29.6713 Cl     28  UNL28      -0.0870
    164 C          -1.0003   14.5724   28.3987 C.3    28  UNL28       0.1805
    165 H          -1.2499   14.1323   27.4298 H      28  UNL28       0.0806
    166 CL         -0.2462   16.1441   36.2842 Cl     28  UNL28      -0.0870
    167 CL         -1.3737   13.6294   37.2271 Cl     28  UNL28      -0.0870
    168 CL          0.5328   13.6359   35.0249 Cl     28  UNL28      -0.0870
    169 C           0.0573   14.4178   36.5420 C.3    28  UNL28       0.1805
    170 H           0.8802   14.3159   37.2541 H      28  UNL28       0.0806
    171 CL         -2.4420   20.2259    1.6817 Cl     28  UNL28      -0.0870
    172 CL         -0.4304   20.9414   -0.2996 Cl     28  UNL28      -0.0870
    173 CL         -0.5583   18.2191    0.7287 Cl     28  UNL28      -0.0870
    174 C          -1.4970   19.6579    0.2950 C.3    28  UNL28       0.1805
    175 H          -2.1899   19.3879   -0.5060 H      28  UNL28       0.0806
    176 CL         -2.7280   19.1401    4.8168 Cl     28  UNL28      -0.0870
    177 CL         -0.2461   19.9617    3.5326 Cl     28  UNL28      -0.0870
    178 CL         -0.2655   17.6732    5.3346 Cl     28  UNL28      -0.0870
    179 C          -1.1905   18.5876    4.1315 C.3    28  UNL28       0.1805
    180 H          -1.4075   17.9260    3.2891 H      28  UNL28       0.0806
    181 CL         -1.8746   19.4112    7.9088 Cl     28  UNL28      -0.0870
    182 CL          0.3977   20.9581    8.8722 Cl     28  UNL28      -0.0870
    183 CL          0.3601   18.0644    9.2036 Cl     28  UNL28      -0.0870
    184 C          -0.1219   19.4181    8.1671 C.3    28  UNL28       0.1805
    185 H           0.3690   19.3007    7.1976 H      28  UNL28       0.0806
    186 CL         -0.4459   19.8675   11.5060 Cl     28  UNL28      -0.0870
    187 CL         -2.2527   17.7771   10.5840 Cl     28  UNL28      -0.0870
    188 CL         -3.1247   19.6578   12.6304 Cl     28  UNL28      -0.0870
    189 C          -2.1340   19.4422   11.1773 C.3    28  UNL28       0.1805
    190 H          -2.5124   20.1119   10.4007 H      28  UNL28       0.0806
    191 CL         -2.5834   17.7851   14.8844 Cl     28  UNL28      -0.0870
    192 CL         -0.4422   19.7592   14.8358 Cl     28  UNL28      -0.0870
    193 CL          0.1973   16.9181   14.8996 Cl     28  UNL28      -0.0870
    194 C          -0.9437   18.1415   14.3160 C.3    28  UNL28       0.1805
    195 H          -0.9456   18.1165   13.2233 H      28  UNL28       0.0806
    196 CL         -3.0970   18.3434   18.8426 Cl     28  UNL28      -0.0870
    197 CL         -2.8185   21.2009   18.3513 Cl     28  UNL28      -0.0870
    198 CL         -0.4742   19.4739   18.2710 Cl     28  UNL28      -0.0870
    199 C          -2.2118   19.5871   17.9436 C.3    28  UNL28       0.1805
    200 H          -2.3721   19.4190   16.8755 H      28  UNL28       0.0806
    201 CL         -0.3427   21.2368   20.9786 Cl     28  UNL28      -0.0870
    202 CL         -0.2542   18.8862   22.6964 Cl     28  UNL28      -0.0870
    203 CL         -2.8181   20.0551   21.9584 Cl     28  UNL28      -0.0870
    204 C          -1.1590   19.7301   21.4284 C.3    28  UNL28       0.1805
    205 H          -1.1996   19.0847   20.5472 H      28  UNL28       0.0806
    206 CL          0.2647   22.1351   26.1625 Cl     28  UNL28      -0.0870
    207 CL          1.2852   19.6581   25.0192 Cl     28  UNL28      -0.0870
    208 CL         -1.4999   20.4099   24.6152 Cl     28  UNL28      -0.0870
    209 C           0.1579   21.0072   24.8005 C.3    28  UNL28       0.1805
    210 H           0.4346   21.5423   23.8884 H      28  UNL28       0.0806
    211 CL         -1.2718   19.5858   28.0263 Cl     28  UNL28      -0.0870
    212 CL          0.6655   21.0000   29.6790 Cl     28  UNL28      -0.0870
    213 CL          0.2876   18.1308   30.0101 Cl     28  UNL28      -0.0870
    214 C           0.2891   19.4763   28.8573 C.3    28  UNL28       0.1805
    215 H           1.0641   19.2879   28.1099 H      28  UNL28       0.0806
    216 CL         -2.5622   20.9259   37.2537 Cl     28  UNL28      -0.0870
    217 CL         -0.0784   19.4044   37.2537 Cl     28  UNL28      -0.0870
    218 CL         -2.6381   18.0141   37.2536 Cl     28  UNL28      -0.0870
    219 C          -1.7594   19.4482   36.6962 C.3    28  UNL28       0.1805
    220 H          -1.7595   19.4483   35.6032 H      28  UNL28       0.0806
    221 CL         -2.3729   24.7262    0.8964 Cl     28  UNL28      -0.0870
    222 CL          0.2664   25.9582    0.9096 Cl     28  UNL28      -0.0870
    223 CL         -0.0485   23.1804    1.7281 Cl     28  UNL28      -0.0870
    224 C          -0.6390   24.4575    0.6512 C.3    28  UNL28       0.1805
    225 H          -0.4836   24.1355   -0.3817 H      28  UNL28       0.0806
    226 CL          0.3848   25.2714    6.7022 Cl     28  UNL28      -0.0870
    227 CL          1.2731   24.7619    9.4291 Cl     28  UNL28      -0.0870
    228 CL         -1.4997   25.4899    8.9125 Cl     28  UNL28      -0.0870
    229 C          -0.0778   24.6356    8.2898 C.3    28  UNL28       0.1805
    230 H          -0.3340   23.5792    8.1758 H      28  UNL28       0.0806
    231 CL         -2.3238   25.0688   17.4699 Cl     28  UNL28      -0.0870
    232 CL          0.1387   25.9972   18.7183 Cl     28  UNL28      -0.0870
    233 CL         -0.5173   23.1592   18.7245 Cl     28  UNL28      -0.0870
    234 C          -0.6315   24.6785   17.8202 C.3    28  UNL28       0.1805
    235 H          -0.1037   24.5544   16.8712 H      28  UNL28       0.0806
    236 CL         -2.9799   25.1558   29.8790 Cl     28  UNL28      -0.0870
    237 CL         -0.1818   24.3482   29.9292 Cl     28  UNL28      -0.0870
    238 CL         -2.2199   22.4824   29.0074 Cl     28  UNL28      -0.0870
    239 C          -1.7302   24.1835   29.0842 C.3    28  UNL28       0.1805
    240 H          -1.6057   24.5519   28.0628 H      28  UNL28       0.0806
    241 CL         -0.9633   25.9426   35.2633 Cl     28  UNL28      -0.0870
    242 CL         -1.2878   23.8409   37.2538 Cl     28  UNL28      -0.0870
    243 CL         -3.0985   26.1226   37.2364 Cl     28  UNL28      -0.0870
    244 C          -2.1249   25.0281   36.2396 C.3    28  UNL28       0.1805
    245 H          -2.7951   24.4912   35.5634 H      28  UNL28       0.0806
    246 CL          1.8137   28.7500    4.9345 Cl     28  UNL28      -0.0870
    247 CL          0.0078   30.1576    3.1341 Cl     28  UNL28      -0.0870
    248 CL         -0.9147   27.7975    4.5707 Cl     28  UNL28      -0.0870
    249 C           0.1334   29.2246    4.6350 C.3    28  UNL28       0.1805
    250 H          -0.1978   29.8576    5.4622 H      28  UNL28       0.0806
    251 CL         -1.0186   29.9721   10.3305 Cl     28  UNL28      -0.0870
    252 CL         -1.9906   27.9351   12.1717 Cl     28  UNL28      -0.0870
    253 CL          0.2674   27.3603   10.4235 Cl     28  UNL28      -0.0870
    254 C          -0.5635   28.6090   11.3667 C.3    28  UNL28       0.1805
    255 H           0.1236   28.9747   12.1339 H      28  UNL28       0.0806
    256 CL          0.5637   27.5054   14.5254 Cl     28  UNL28      -0.0870
    257 CL         -0.9033   29.9917   14.1376 Cl     28  UNL28      -0.0870
    258 CL         -2.1263   27.7927   15.6051 Cl     28  UNL28      -0.0870
    259 C          -0.6098   28.6293   15.2315 C.3    28  UNL28       0.1805
    260 H          -0.1939   29.0200   16.1637 H      28  UNL28       0.0806
    261 CL          1.6866   30.9712   16.8943 Cl     28  UNL28      -0.0870
    262 CL         -0.8660   30.1451   18.0284 Cl     28  UNL28      -0.0870
    263 CL          1.4986   28.4853   18.4006 Cl     28  UNL28      -0.0870
    264 C           0.8924   30.1428   18.2440 C.3    28  UNL28       0.1805
    265 H           1.1268   30.6831   19.1648 H      28  UNL28       0.0806
    266 CL         -1.9529   30.1579   21.0008 Cl     28  UNL28      -0.0870
    267 CL         -2.5130   27.9420   19.1953 Cl     28  UNL28      -0.0870
    268 CL         -0.6959   27.5675   21.4408 Cl     28  UNL28      -0.0870
    269 C          -2.1495   28.4023   20.8670 C.3    28  UNL28       0.1805
    270 H          -2.9903   28.1015   21.4972 H      28  UNL28       0.0806
    271 CL          0.6199   27.3547   24.0093 Cl     28  UNL28      -0.0870
    272 CL         -0.4561   29.9542   24.7636 Cl     28  UNL28      -0.0870
    273 CL         -2.2588   27.7230   24.2569 Cl     28  UNL28      -0.0870
    274 C          -0.6705   28.1995   24.8810 C.3    28  UNL28       0.1805
    275 H          -0.6161   27.9160   25.9352 H      28  UNL28       0.0806
    276 CL         -1.9035   28.3703   31.7269 Cl     28  UNL28      -0.0870
    277 CL          0.3855   29.4431   33.1737 Cl     28  UNL28      -0.0870
    278 CL          0.3777   26.6586   32.3188 Cl     28  UNL28      -0.0870
    279 C          -0.1440   28.3050   31.9235 C.3    28  UNL28       0.1805
    280 H           0.3187   28.5944   30.9766 H      28  UNL28       0.0806
    281 CL         -0.0591   31.6422    0.0984 Cl     28  UNL28      -0.0870
    282 CL         -1.2103   34.2873   -0.3050 Cl     28  UNL28      -0.0870
    283 CL         -2.8152   31.9085   -0.8055 Cl     28  UNL28      -0.0870
    284 C          -1.5347   32.6182    0.1925 C.3    28  UNL28       0.1805
    285 H          -1.8743   32.6287    1.2313 H      28  UNL28       0.0806
    286 CL         -2.0730   35.4462    3.1973 Cl     28  UNL28      -0.0870
    287 CL         -2.1134   32.6025    3.8264 Cl     28  UNL28      -0.0870
    288 CL          0.3093   33.8261    2.7689 Cl     28  UNL28      -0.0870
    289 C          -1.1227   34.0706    3.7832 C.3    28  UNL28       0.1805
    290 H          -0.7899   34.2911    4.8007 H      28  UNL28       0.0806
    291 CL         -2.4693   33.1083    8.0590 Cl     28  UNL28      -0.0870
    292 CL         -0.1466   34.8166    7.6456 Cl     28  UNL28      -0.0870
    293 CL          0.2056   31.9556    8.0646 Cl     28  UNL28      -0.0870
    294 C          -0.8389   33.2087    7.3732 C.3    28  UNL28       0.1805
    295 H          -0.9084   33.0422    6.2952 H      28  UNL28       0.0806
    296 CL         -0.6024   32.8386   10.9022 Cl     28  UNL28      -0.0870
    297 CL          0.6802   35.4450   11.1168 Cl     28  UNL28      -0.0870
    298 CL         -2.0656   35.2469   10.1650 Cl     28  UNL28      -0.0870
    299 C          -0.8475   34.5581   11.2517 C.3    28  UNL28       0.1805
    300 H          -1.2102   34.6520   12.2785 H      28  UNL28       0.0806
    301 CL          0.9686   32.1777   13.3759 Cl     28  UNL28      -0.0870
    302 CL          0.2997   34.6101   14.8320 Cl     28  UNL28      -0.0870
    303 CL         -1.8173   32.8269   13.9249 Cl     28  UNL28      -0.0870
    304 C          -0.1533   32.9251   14.5255 C.3    28  UNL28       0.1805
    305 H          -0.0953   32.3762   15.4689 H      28  UNL28       0.0806
    306 CL         -0.5420   32.9187   17.7770 Cl     28  UNL28      -0.0870
    307 CL          0.9118   35.4348   17.5770 Cl     28  UNL28      -0.0870
    308 CL         -1.9499   35.4454   18.1204 Cl     28  UNL28      -0.0870
    309 C          -0.4227   34.5831   18.3722 C.3    28  UNL28       0.1805
    310 H          -0.2190   34.5507   19.4456 H      28  UNL28       0.0806
    311 CL          1.3311   32.8043   20.3940 Cl     28  UNL28      -0.0870
    312 CL          0.4659   34.8300   22.2997 Cl     28  UNL28      -0.0870
    313 CL         -1.5087   33.2112   20.8979 Cl     28  UNL28      -0.0870
    314 C           0.1148   33.2377   21.6070 C.3    28  UNL28       0.1805
    315 H           0.1513   32.4974   22.4103 H      28  UNL28       0.0806
    316 CL         -0.7484   32.9210   24.7284 Cl     28  UNL28      -0.0870
    317 CL          0.5467   35.4369   25.4189 Cl     28  UNL28      -0.0870
    318 CL         -2.1065   35.4465   24.2168 Cl     28  UNL28      -0.0870
    319 C          -0.9993   34.5806   25.2955 C.3    28  UNL28       0.1805
    320 H          -1.4502   34.5396   26.2903 H      28  UNL28       0.0806
    321 CL          1.1123   32.9427   27.3883 Cl     28  UNL28      -0.0870
    322 CL         -0.5716   34.9467   28.6661 Cl     28  UNL28      -0.0870
    323 CL         -1.7619   32.5155   27.5902 Cl     28  UNL28      -0.0870
    324 C          -0.3349   33.2155   28.3732 C.3    28  UNL28       0.1805
    325 H          -0.1935   32.7197   29.3369 H      28  UNL28       0.0806
    326 CL          0.2802   32.8202   32.3976 Cl     28  UNL28      -0.0870
    327 CL          1.5311   35.4450   32.2239 Cl     28  UNL28      -0.0870
    328 CL         -1.3325   35.1634   31.7711 Cl     28  UNL28      -0.0870
    329 C           0.0658   34.5569   32.6744 C.3    28  UNL28       0.1805
    330 H          -0.1183   34.7151   33.7401 H      28  UNL28       0.0806
    331 CL         -1.9040   35.3771   36.0639 Cl     28  UNL28      -0.0870
    332 CL         -2.9100   33.4427   34.1324 Cl     28  UNL28      -0.0870
    333 CL         -0.6372   32.7653   35.8236 Cl     28  UNL28      -0.0870
    334 C          -2.1646   33.6577   35.7252 C.3    28  UNL28       0.1805
    335 H          -2.8458   33.2579   36.4806 H      28  UNL28       0.0806
    336 CL          5.5403   -0.5924    1.9202 Cl     28  UNL28      -0.0870
    337 CL          2.7681   -1.2562    1.3215 Cl     28  UNL28      -0.0870
    338 CL          4.9223   -2.4792   -0.2111 Cl     28  UNL28      -0.0870
    339 C           4.4318   -1.8627    1.3760 C.3    28  UNL28       0.1805
    340 H           4.4743   -2.6865    2.0931 H      28  UNL28       0.0806
    341 CL          2.2351    0.6686    6.1336 Cl     28  UNL28      -0.0870
    342 CL          3.0013    1.4748    3.4416 Cl     28  UNL28      -0.0870
    343 CL          3.7936   -1.1363    4.4611 Cl     28  UNL28      -0.0870
    344 C           2.5390    0.1147    4.4785 C.3    28  UNL28       0.1805
    345 H           1.6157   -0.3188    4.0859 H      28  UNL28       0.0806
    346 CL          2.9491   -1.8079    7.7871 Cl     28  UNL28      -0.0870
    347 CL          5.2151   -2.9731    6.3758 Cl     28  UNL28      -0.0870
    348 CL          5.3151   -0.1962    7.2498 Cl     28  UNL28      -0.0870
    349 C           4.7131   -1.8201    7.6237 C.3    28  UNL28       0.1805
    350 H           5.1445   -2.1357    8.5771 H      28  UNL28       0.0806
    351 CL          2.4839   -0.8866   11.4133 Cl     28  UNL28      -0.0870
    352 CL          5.0199    0.1030   10.3772 Cl     28  UNL28      -0.0870
    353 CL          4.9882   -2.0565   12.3319 Cl     28  UNL28      -0.0870
    354 C           4.1410   -1.3202   10.9609 C.3    28  UNL28       0.1805
    355 H           4.0958   -2.0527   10.1510 H      28  UNL28       0.0806
    356 CL          2.3318   -0.6217   14.6897 Cl     28  UNL28      -0.0870
    357 CL          3.3839    1.5978   13.1240 Cl     28  UNL28      -0.0870
    358 CL          0.9139    1.9220   14.6335 Cl     28  UNL28      -0.0870
    359 C           2.5027    1.1390   14.5908 C.3    28  UNL28       0.1805
    360 H           3.0765    1.4779   15.4571 H      28  UNL28       0.0806
    361 CL          2.5004    1.6171   18.1733 Cl     28  UNL28      -0.0870
    362 CL         -0.4112    1.5457   18.2131 Cl     28  UNL28      -0.0870
    363 CL          1.0978   -0.8827   17.6561 Cl     28  UNL28      -0.0870
    364 C           1.0726    0.6416   18.5588 C.3    28  UNL28       0.1805
    365 H           1.0930    0.4093   19.6266 H      28  UNL28       0.0806
    366 CL          2.6587   -1.3431   24.0848 Cl     28  UNL28      -0.0870
    367 CL          5.4898   -1.2133   24.7572 Cl     28  UNL28      -0.0870
    368 CL          3.8634   -3.4284   25.7231 Cl     28  UNL28      -0.0870
    369 C           4.1266   -2.2853   24.3952 C.3    28  UNL28       0.1805
    370 H           4.3667   -2.8548   23.4937 H      28  UNL28       0.0806
    371 CL          6.0914   -0.0920   28.9864 Cl     28  UNL28      -0.0870
    372 CL          4.7294   -2.6533   29.2487 Cl     28  UNL28      -0.0870
    373 CL          3.7101   -0.6440   27.4025 Cl     28  UNL28      -0.0870
    374 C           5.1624   -1.3409   28.1402 C.3    28  UNL28       0.1805
    375 H           5.7875   -1.7547   27.3448 H      28  UNL28       0.0806
    376 CL          4.3983   -2.9673   32.4947 Cl     28  UNL28      -0.0870
    377 CL          6.3580   -0.8508   32.0895 Cl     28  UNL28      -0.0870
    378 CL          3.5656   -0.4034   31.3917 Cl     28  UNL28      -0.0870
    379 C           4.6758   -1.2176   32.5069 C.3    28  UNL28       0.1805
    380 H           4.4830   -0.8459   33.5165 H      28  UNL28       0.0806
    381 CL          1.3720   -0.9411   37.2537 Cl     28  UNL28      -0.0870
    382 CL          1.5086    1.9684   37.2537 Cl     28  UNL28      -0.0870
    383 CL          3.9601    0.3953   37.2536 Cl     28  UNL28      -0.0870
    384 C           2.2801    0.4743   36.6962 C.3    28  UNL28       0.1805
    385 H           2.2800    0.4742   35.6032 H      28  UNL28       0.0806
    386 CL          3.1493    4.0517   -0.4017 Cl     28  UNL28      -0.0870
    387 CL          5.9972    4.6279   -0.1975 Cl     28  UNL28      -0.0870
    388 CL          4.9271    2.1590    0.9180 Cl     28  UNL28      -0.0870
    389 C           4.7783    3.3554   -0.3804 C.3    28  UNL28       0.1805
    390 H           4.9488    2.8503   -1.3346 H      28  UNL28       0.0806
    391 CL          1.8301    5.9786    3.7614 Cl     28  UNL28      -0.0870
    392 CL          4.5030    6.9318    4.4178 Cl     28  UNL28      -0.0870
    393 CL          4.1688    4.5591    2.7615 Cl     28  UNL28      -0.0870
    394 C           3.4990    6.1425    3.1900 C.3    28  UNL28       0.1805
    395 H           3.4958    6.7684    2.2939 H      28  UNL28       0.0806
    396 CL          3.7725    2.6421    8.1504 Cl     28  UNL28      -0.0870
    397 CL          2.2698    3.7348    5.9071 Cl     28  UNL28      -0.0870
    398 CL          5.0090    4.6023    6.3860 Cl     28  UNL28      -0.0870
    399 C           3.8710    3.2481    6.4885 C.3    28  UNL28       0.1805
    400 H           4.2384    2.4411    5.8494 H      28  UNL28       0.0806
    401 CL          4.8219    5.6574    9.3062 Cl     28  UNL28      -0.0870
    402 CL          2.9531    5.6835   11.5403 Cl     28  UNL28      -0.0870
    403 CL          4.8310    3.4774   11.2380 Cl     28  UNL28      -0.0870
    404 C           4.5753    5.2150   11.0039 C.3    28  UNL28       0.1805
    405 H           5.3073    5.7550   11.6098 H      28  UNL28       0.0806
    406 CL          2.4724    4.1477   16.1550 Cl     28  UNL28      -0.0870
    407 CL          3.8975    6.6234   15.5854 Cl     28  UNL28      -0.0870
    408 CL          4.6200    4.1721   14.1874 Cl     28  UNL28      -0.0870
    409 C           3.2947    5.1011   14.9086 C.3    28  UNL28       0.1805
    410 H           2.5722    5.3361   14.1229 H      28  UNL28       0.0806
    411 CL          4.8920    4.7773   18.1048 Cl     28  UNL28      -0.0870
    412 CL          6.7791    3.2116   16.5326 Cl     28  UNL28      -0.0870
    413 CL          5.7535    2.1595   19.0478 Cl     28  UNL28      -0.0870
    414 C           5.3840    3.1451   17.6225 C.3    28  UNL28       0.1805
    415 H           4.5521    2.6789   17.0884 H      28  UNL28       0.0806
    416 CL          2.4993    4.3892   22.0939 Cl     28  UNL28      -0.0870
    417 CL          5.2417    4.2600   21.1208 Cl     28  UNL28      -0.0870
    418 CL          4.0567    1.9532   22.4471 Cl     28  UNL28      -0.0870
    419 C           3.7493    3.3458   21.3956 C.3    28  UNL28       0.1805
    420 H           3.3898    2.9763   20.4318 H      28  UNL28       0.0806
    421 CL          5.9993    4.3069   26.2742 Cl     28  UNL28      -0.0870
    422 CL          4.3772    1.9405   25.7710 Cl     28  UNL28      -0.0870
    423 CL          3.3834    4.5740   25.0212 Cl     28  UNL28      -0.0870
    424 C           4.8218    3.5527   25.1863 C.3    28  UNL28       0.1805
    425 H           5.2829    3.4462   24.2011 H      28  UNL28       0.0806
    426 CL          2.4995    4.9494   29.2398 Cl     28  UNL28      -0.0870
    427 CL          5.3885    4.6100   29.3903 Cl     28  UNL28      -0.0870
    428 CL          3.6547    2.2756   29.2183 Cl     28  UNL28      -0.0870
    429 C           3.8787    3.9630   28.7265 C.3    28  UNL28       0.1805
    430 H           3.9395    3.9982   27.6358 H      28  UNL28       0.0806
    431 CL          3.1541    2.3210   33.9070 Cl     28  UNL28      -0.0870
    432 CL          3.9596    4.6647   32.3765 Cl     28  UNL28      -0.0870
    433 CL          5.4306    2.1662   32.0966 Cl     28  UNL28      -0.0870
    434 C           3.8415    2.8970   32.3791 C.3    28  UNL28       0.1805
    435 H           3.1750    2.5956   31.5670 H      28  UNL28       0.0806
    436 CL          3.1825    4.1196   36.1249 Cl     28  UNL28      -0.0870
    437 CL          1.0518    5.4136   34.6184 Cl     28  UNL28      -0.0870
    438 CL          1.7869    6.4136   37.2536 Cl     28  UNL28      -0.0870
    439 C           2.3801    5.6575   35.7650 C.3    28  UNL28       0.1805
    440 H           3.1115    6.3280   35.3066 H      28  UNL28       0.0806
    441 CL          3.9593    8.6040    0.5309 Cl     28  UNL28      -0.0870
    442 CL          6.2450    7.3757    1.8543 Cl     28  UNL28      -0.0870
    443 CL          6.5270    8.4558   -0.8362 Cl     28  UNL28      -0.0870
    444 C           5.7193    8.6400    0.7300 C.3    28  UNL28       0.1805
    445 H           5.9982    9.6103    1.1487 H      28  UNL28       0.0806
    446 CL          2.5392   11.2645    5.6129 Cl     28  UNL28      -0.0870
    447 CL          4.6441    9.8498    4.1802 Cl     28  UNL28      -0.0870
    448 CL          1.8547    9.1231    3.7608 Cl     28  UNL28      -0.0870
    449 C           2.9788   10.4493    4.1026 C.3    28  UNL28       0.1805
    450 H           2.9121   11.1751    3.2881 H      28  UNL28       0.0806
    451 CL          2.8143    8.1810    9.3514 Cl     28  UNL28      -0.0870
    452 CL          4.9804    8.6780    7.4685 Cl     28  UNL28      -0.0870
    453 CL          2.9740    6.6504    6.8784 Cl     28  UNL28      -0.0870
    454 C           3.2778    8.2201    7.6419 C.3    28  UNL28       0.1805
    455 H           2.6662    8.9722    7.1370 H      28  UNL28       0.0806
    456 CL          2.9144   10.6503   11.1055 Cl     28  UNL28      -0.0870
    457 CL          5.5680   11.8180   10.8250 Cl     28  UNL28      -0.0870
    458 CL          5.2625    8.9285   11.0306 Cl     28  UNL28      -0.0870
    459 C           4.5384   10.4308   10.4323 C.3    28  UNL28       0.1805
    460 H           4.4534   10.3623    9.3448 H      28  UNL28       0.0806
    461 CL          5.1701    9.5001   14.5686 Cl     28  UNL28      -0.0870
    462 CL          2.8700   11.2870   14.5467 Cl     28  UNL28      -0.0870
    463 CL          2.6979    8.6757   13.2675 Cl     28  UNL28      -0.0870
    464 C           3.4016    9.5981   14.6067 C.3    28  UNL28       0.1805
    465 H           3.0531    9.1609   15.5459 H      28  UNL28       0.0806
    466 CL          4.2285    8.5974   17.8162 Cl     28  UNL28      -0.0870
    467 CL          2.2874   10.7691   17.8322 Cl     28  UNL28      -0.0870
    468 CL          4.7966   11.0476   19.2852 Cl     28  UNL28      -0.0870
    469 C           4.0098   10.3551   17.8567 C.3    28  UNL28       0.1805
    470 H           4.4786   10.7805   16.9657 H      28  UNL28       0.0806
    471 CL          5.7704    8.8161   21.4597 Cl     28  UNL28      -0.0870
    472 CL          3.6537    7.0410   20.5363 Cl     28  UNL28      -0.0870
    473 CL          4.8468    6.6416   23.1634 Cl     28  UNL28      -0.0870
    474 C           4.3752    7.8379   21.9445 C.3    28  UNL28       0.1805
    475 H           3.6266    8.5012   22.3853 H      28  UNL28       0.0806
    476 CL          3.0160   11.2789   25.8007 Cl     28  UNL28      -0.0870
    477 CL          4.9031    9.2699   24.8588 Cl     28  UNL28      -0.0870
    478 CL          2.1596    8.5135   25.4799 Cl     28  UNL28      -0.0870
    479 C           3.2109    9.7946   24.8533 C.3    28  UNL28       0.1805
    480 H           2.9193   10.0047   23.8211 H      28  UNL28       0.0806
    481 CL          6.4237    8.8863   27.5159 Cl     28  UNL28      -0.0870
    482 CL          3.6522    9.1183   28.3814 Cl     28  UNL28      -0.0870
    483 CL          4.5170    6.7795   26.8757 Cl     28  UNL28      -0.0870
    484 C           4.9913    8.0016   28.0676 C.3    28  UNL28       0.1805
    485 H           5.2406    7.4922   29.0020 H      28  UNL28       0.0806
    486 CL          1.6741   10.1284   32.4737 Cl     28  UNL28      -0.0870
    487 CL          4.5217    9.5176   32.4246 Cl     28  UNL28      -0.0870
    488 CL          2.6182    7.6879   31.1944 Cl     28  UNL28      -0.0870
    489 C           2.9883    9.3843   31.5474 C.3    28  UNL28       0.1805
    490 H           3.0866    9.9193   30.5994 H      28  UNL28       0.0806
    491 CL          2.6073   11.4300   35.4363 Cl     28  UNL28      -0.0870
    492 CL          5.2898   10.2952   35.4658 Cl     28  UNL28      -0.0870
    493 CL          3.2444    9.2452   37.2543 Cl     28  UNL28      -0.0870
    494 C           3.5623    9.9550   35.6622 C.3    28  UNL28       0.1805
    495 H           3.2649    9.2324   34.8980 H      28  UNL28       0.0806
    496 CL          5.9995   14.5440    2.0294 Cl     28  UNL28      -0.0870
    497 CL          4.7505   11.9497    1.5891 Cl     28  UNL28      -0.0870
    498 CL          3.2652   14.3939    1.0368 Cl     28  UNL28      -0.0870
    499 C           4.8621   13.6264    1.0278 C.3    28  UNL28       0.1805
    500 H           5.2354   13.6211    0.0006 H      28  UNL28       0.0806
    501 CL          4.4301   16.2860    4.7282 Cl     28  UNL28      -0.0870
    502 CL          1.7266   15.5091    3.9720 Cl     28  UNL28      -0.0870
    503 CL          3.8132   13.4892    4.1977 Cl     28  UNL28      -0.0870
    504 C           3.1940   15.0214    4.8366 C.3    28  UNL28       0.1805
    505 H           2.9408   14.8775    5.8901 H      28  UNL28       0.0806
    506 CL          3.3816   12.8383    8.4332 Cl     28  UNL28      -0.0870
    507 CL          5.4292   11.8390    6.6185 Cl     28  UNL28      -0.0870
    508 CL          5.2274   14.6947    7.1560 Cl     28  UNL28      -0.0870
    509 C           5.0318   13.0682    7.8309 C.3    28  UNL28       0.1805
    510 H           5.7227   12.9590    8.6708 H      28  UNL28       0.0806
    511 CL          2.4991   16.1577   11.8912 Cl     28  UNL28      -0.0870
    512 CL          5.2669   15.3336   11.5113 Cl     28  UNL28      -0.0870
    513 CL          3.2047   13.3336   11.9930 Cl     28  UNL28      -0.0870
    514 C           3.5692   14.9000   11.2496 C.3    28  UNL28       0.1805
    515 H           3.3970   14.8182   10.1733 H      28  UNL28       0.0806
    516 CL          5.7683   12.8915   13.6880 Cl     28  UNL28      -0.0870
    517 CL          4.7883   13.4710   16.3690 Cl     28  UNL28      -0.0870
    518 CL          5.6253   15.6466   14.6223 Cl     28  UNL28      -0.0870
    519 C           4.8746   14.0434   14.6946 C.3    28  UNL28       0.1805
    520 H           3.8563   14.1225   14.3052 H      28  UNL28       0.0806
    521 CL          2.6308   13.9364   18.2239 Cl     28  UNL28      -0.0870
    522 CL          2.6670   16.1570   16.3394 Cl     28  UNL28      -0.0870
    523 CL          1.3447   16.4560   18.9175 Cl     28  UNL28      -0.0870
    524 C           2.6914   15.6985   18.0504 C.3    28  UNL28       0.1805
    525 H           3.6268   16.0552   18.4889 H      28  UNL28       0.0806
    526 CL          5.0979   14.6194   22.0421 Cl     28  UNL28      -0.0870
    527 CL          5.6323   11.8006   22.5452 Cl     28  UNL28      -0.0870
    528 CL          3.0334   12.9326   23.2155 Cl     28  UNL28      -0.0870
    529 C           4.4014   12.9911   22.0910 C.3    28  UNL28       0.1805
    530 H           4.0356   12.7434   21.0913 H      28  UNL28       0.0806
    531 CL          3.3497   14.5652   26.8142 Cl     28  UNL28      -0.0870
    532 CL          5.5442   16.1583   25.7509 Cl     28  UNL28      -0.0870
    533 CL          5.3494   13.3267   25.0963 Cl     28  UNL28      -0.0870
    534 C           4.4402   14.8082   25.4392 C.3    28  UNL28       0.1805
    535 H           3.8371   15.0527   24.5611 H      28  UNL28       0.0806
    536 CL          5.5003   13.9639   29.2034 Cl     28  UNL28      -0.0870
    537 CL          5.5484   11.1192   29.8271 Cl     28  UNL28      -0.0870
    538 CL          3.0137   12.4495   29.2884 Cl     28  UNL28      -0.0870
    539 C           4.7409   12.3928   28.8974 C.3    28  UNL28       0.1805
    540 H           4.8454   12.1616   27.8343 H      28  UNL28       0.0806
    541 CL          2.4995   13.1699   32.6442 Cl     28  UNL28      -0.0870
    542 CL          2.3300   15.4778   30.8753 Cl     28  UNL28      -0.0870
    543 CL          3.7153   15.6980   33.4283 Cl     28  UNL28      -0.0870
    544 C           3.3248   14.6288   32.0705 C.3    28  UNL28       0.1805
    545 H           4.2592   14.3286   31.5894 H      28  UNL28       0.0806
    546 CL          6.0431   14.7858   37.2541 Cl     28  UNL28      -0.0870
    547 CL          3.3503   15.4380   36.3556 Cl     28  UNL28      -0.0870
    548 CL          4.8789   13.3666   34.9926 Cl     28  UNL28      -0.0870
    549 C           4.5487   14.1475   36.5484 C.3    28  UNL28       0.1805
    550 H           4.1397   13.3972   37.2299 H      28  UNL28       0.0806
    551 CL          2.6042   18.4393   -0.2050 Cl     28  UNL28      -0.0870
    552 CL          5.2776   19.2005   -1.0752 Cl     28  UNL28      -0.0870
    553 CL          4.9421   17.3032    1.1094 Cl     28  UNL28      -0.0870
    554 C           4.2756   17.8935   -0.4225 C.3    28  UNL28       0.1805
    555 H           4.2773   17.0681   -1.1390 H      28  UNL28       0.0806
    556 CL          4.2364   19.5957    4.3701 Cl     28  UNL28      -0.0870
    557 CL          2.1978   18.2230    2.8069 Cl     28  UNL28      -0.0870
    558 CL          2.3697   21.1301    2.7438 Cl     28  UNL28      -0.0870
    559 C           3.2860   19.6193    2.8752 C.3    28  UNL28       0.1805
    560 H           3.9749   19.5602    2.0287 H      28  UNL28       0.0806
    561 CL          4.2392   17.0047    8.9574 Cl     28  UNL28      -0.0870
    562 CL          2.3711   17.3108    6.7436 Cl     28  UNL28      -0.0870
    563 CL          3.3081   19.6569    8.1937 Cl     28  UNL28      -0.0870
    564 C           3.7338   18.0389    7.6106 C.3    28  UNL28       0.1805
    565 H           4.5725   18.1332    6.9161 H      28  UNL28       0.0806
    566 CL          2.9681   22.1113   10.8408 Cl     28  UNL28      -0.0870
    567 CL          2.4996   19.2451   11.0638 Cl     28  UNL28      -0.0870
    568 CL          5.1959   20.2492   10.6090 Cl     28  UNL28      -0.0870
    569 C           3.6363   20.5646   11.3885 C.3    28  UNL28       0.1805
    570 H           3.7969   20.6225   12.4681 H      28  UNL28       0.0806
    571 CL          4.3025   20.5206   15.3082 Cl     28  UNL28      -0.0870
    572 CL          2.5430   18.6406   13.9465 Cl     28  UNL28      -0.0870
    573 CL          5.4160   18.5499   13.4750 Cl     28  UNL28      -0.0870
    574 C           4.1449   18.8773   14.6651 C.3    28  UNL28       0.1805
    575 H           4.2584   18.1720   15.4924 H      28  UNL28       0.0806
    576 CL          3.3653   18.8609   18.0018 Cl     28  UNL28      -0.0870
    577 CL          3.8393   21.5047   19.1286 Cl     28  UNL28      -0.0870
    578 CL          1.8409   21.1487   17.0395 Cl     28  UNL28      -0.0870
    579 C           2.6266   20.4091   18.4447 C.3    28  UNL28       0.1805
    580 H           1.8647   20.2213   19.2055 H      28  UNL28       0.0806
    581 CL          2.6614   19.6761   21.5761 Cl     28  UNL28      -0.0870
    582 CL          5.2849   18.4281   21.3666 Cl     28  UNL28      -0.0870
    583 CL          3.1995   17.1747   22.9681 Cl     28  UNL28      -0.0870
    584 C           3.5438   18.1408   21.5232 C.3    28  UNL28       0.1805
    585 H           3.2073   17.5808   20.6470 H      28  UNL28       0.0806
    586 CL          4.4847   18.9862   25.2529 Cl     28  UNL28      -0.0870
    587 CL          3.5687   21.6572   25.9677 Cl     28  UNL28      -0.0870
    588 CL          5.6656   21.3216   23.9740 Cl     28  UNL28      -0.0870
    589 C           4.1871   20.6302   24.6633 C.3    28  UNL28       0.1805
    590 H           3.4307   20.5814   23.8759 H      28  UNL28       0.0806
    591 CL          2.8810   17.0939   28.1899 Cl     28  UNL28      -0.0870
    592 CL          5.6770   17.8897   28.3710 Cl     28  UNL28      -0.0870
    593 CL          3.5914   19.6582   29.3747 Cl     28  UNL28      -0.0870
    594 C           4.0862   17.9723   29.1462 C.3    28  UNL28       0.1805
    595 H           4.1573   17.4986   30.1287 H      28  UNL28       0.0806
    596 CL          1.9182   18.1935   34.6815 Cl     28  UNL28      -0.0870
    597 CL          3.7884   18.7934   32.5306 Cl     28  UNL28      -0.0870
    598 CL          1.4028   20.4270   32.8843 Cl     28  UNL28      -0.0870
    599 C           2.6526   19.4770   33.7058 C.3    28  UNL28       0.1805
    600 H           3.2068   20.1419   34.3733 H      28  UNL28       0.0806
    601 CL          3.3264   20.1548   37.1767 Cl     28  UNL28      -0.0870
    602 CL          6.0785   21.1065   37.2435 Cl     28  UNL28      -0.0870
    603 CL          5.5257   18.2466   37.2539 Cl     28  UNL28      -0.0870
    604 C           4.9922   19.8311   36.6675 C.3    28  UNL28       0.1805
    605 H           5.0220   19.8213   35.5749 H      28  UNL28       0.0806
    606 CL          3.6091   21.7183   -0.5855 Cl     28  UNL28      -0.0870
    607 CL          5.4609   23.9663   -0.6267 Cl     28  UNL28      -0.0870
    608 CL          5.7595   21.8696    1.3732 Cl     28  UNL28      -0.0870
    609 C           5.2777   22.2362   -0.2919 C.3    28  UNL28       0.1805
    610 H           5.9336   21.6834   -0.9693 H      28  UNL28       0.0806
    611 CL          4.3395   23.2489    3.7979 Cl     28  UNL28      -0.0870
    612 CL          5.3108   25.4010    2.0923 Cl     28  UNL28      -0.0870
    613 CL          2.9200   23.9151    1.3433 Cl     28  UNL28      -0.0870
    614 C           3.8756   24.5529    2.6921 C.3    28  UNL28       0.1805
    615 H           3.2588   25.2677    3.2429 H      28  UNL28       0.0806
    616 CL          1.8383   20.6683    5.8342 Cl     28  UNL28      -0.0870
    617 CL          2.7480   23.1580    7.0417 Cl     28  UNL28      -0.0870
    618 CL          1.2387   23.2134    4.5510 Cl     28  UNL28      -0.0870
    619 C           1.4661   22.3802    6.0980 C.3    28  UNL28       0.1805
    620 H           0.5337   22.4460    6.6645 H      28  UNL28       0.0806
    621 CL          5.4827   23.1576    9.3428 Cl     28  UNL28      -0.0870
    622 CL          4.2773   25.0426   11.2078 Cl     28  UNL28      -0.0870
    623 CL          6.0483   26.0050    9.1050 Cl     28  UNL28      -0.0870
    624 C           4.8325   24.7933    9.5440 C.3    28  UNL28       0.1805
    625 H           3.9759   24.9075    8.8747 H      28  UNL28       0.0806
    626 CL          1.8072   24.6767   14.9029 Cl     28  UNL28      -0.0870
    627 CL          4.1598   23.3614   13.7988 Cl     28  UNL28      -0.0870
    628 CL          1.5834   22.0027   13.7699 Cl     28  UNL28      -0.0870
    629 C           2.4060   23.5679   13.6576 C.3    28  UNL28       0.1805
    630 H           2.1884   24.0012   12.6780 H      28  UNL28       0.0806
    631 CL          3.9252   26.5049   18.6245 Cl     28  UNL28      -0.0870
    632 CL          5.9057   24.5760   17.7075 Cl     28  UNL28      -0.0870
    633 CL          3.0661   23.9662   17.4839 Cl     28  UNL28      -0.0870
    634 C           4.2894   25.2469   17.4315 C.3    28  UNL28       0.1805
    635 H           4.2703   25.7001   16.4370 H      28  UNL28       0.0806
    636 CL          4.9719   25.5918   21.6174 Cl     28  UNL28      -0.0870
    637 CL          4.1945   22.8058   21.9613 Cl     28  UNL28      -0.0870
    638 CL          2.3647   24.6823   20.6903 Cl     28  UNL28      -0.0870
    639 C           4.0635   24.2372   20.9256 C.3    28  UNL28       0.1805
    640 H           4.4942   23.9967   19.9503 H      28  UNL28       0.0806
    641 CL          2.4996   26.1014   26.0063 Cl     28  UNL28      -0.0870
    642 CL          4.7628   24.4902   25.1312 Cl     28  UNL28      -0.0870
    643 CL          2.0794   23.8683   24.1840 Cl     28  UNL28      -0.0870
    644 C           3.1885   25.1608   24.6724 C.3    28  UNL28       0.1805
    645 H           3.3345   25.8291   23.8199 H      28  UNL28       0.0806
    646 CL          5.5461   22.8948   27.9968 Cl     28  UNL28      -0.0870
    647 CL          4.8540   25.6422   28.6727 Cl     28  UNL28      -0.0870
    648 CL          2.7505   23.7015   28.1311 Cl     28  UNL28      -0.0870
    649 C           4.3702   23.9433   28.8073 C.3    28  UNL28       0.1805
    650 H           4.3440   23.6759   29.8668 H      28  UNL28       0.0806
    651 CL          5.6168   23.5723   32.1892 Cl     28  UNL28      -0.0870
    652 CL          5.9996   26.4289   31.7679 Cl     28  UNL28      -0.0870
    653 CL          3.3204   25.2894   31.6773 Cl     28  UNL28      -0.0870
    654 C           4.9230   25.1852   32.4257 C.3    28  UNL28       0.1805
    655 H           4.8131   25.3582   33.4993 H      28  UNL28       0.0806
    656 CL          2.5305   23.7767   37.2549 Cl     28  UNL28      -0.0870
    657 CL          2.7601   25.6921   35.0726 Cl     28  UNL28      -0.0870
    658 CL          3.5541   22.9192   34.6663 Cl     28  UNL28      -0.0870
    659 C           2.4300   24.0051   35.5009 C.3    28  UNL28       0.1805
    660 H           1.4141   23.7612   35.1800 H      28  UNL28       0.0806
    661 CL          3.8280   27.9574    2.7470 Cl     28  UNL28      -0.0870
    662 CL          3.4440   26.8381    0.0855 Cl     28  UNL28      -0.0870
    663 CL          1.4753   28.6797    1.1890 Cl     28  UNL28      -0.0870
    664 C           3.1940   28.2547    1.1196 C.3    28  UNL28       0.1805
    665 H           3.7394   29.0972    0.6867 H      28  UNL28       0.0806
    666 CL          5.7789   27.4936    6.3163 Cl     28  UNL28      -0.0870
    667 CL          5.3143   24.6187    6.3752 Cl     28  UNL28      -0.0870
    668 CL          3.1413   26.4315    5.6847 Cl     28  UNL28      -0.0870
    669 C           4.8874   26.1471    5.5875 C.3    28  UNL28       0.1805
    670 H           5.1669   26.0805    4.5330 H      28  UNL28       0.0806
    671 CL          2.7086   28.5555    7.7566 Cl     28  UNL28      -0.0870
    672 CL          3.2472   31.4027    7.4617 Cl     28  UNL28      -0.0870
    673 CL          5.3090   29.6312    8.5083 Cl     28  UNL28      -0.0870
    674 C           3.9413   29.7743    7.3910 C.3    28  UNL28       0.1805
    675 H           4.3068   29.5999    6.3758 H      28  UNL28       0.0806
    676 CL          4.9671   29.8512   11.8114 Cl     28  UNL28      -0.0870
    677 CL          2.5416   30.6572   10.4145 Cl     28  UNL28      -0.0870
    678 CL          3.2572   27.8386   10.5828 Cl     28  UNL28      -0.0870
    679 C           3.3002   29.4042   11.4112 C.3    28  UNL28       0.1805
    680 H           2.7347   29.3162   12.3424 H      28  UNL28       0.0806
    681 CL          6.4258   28.9226   14.5311 Cl     28  UNL28      -0.0870
    682 CL          3.6711   29.8629   14.6390 Cl     28  UNL28      -0.0870
    683 CL          4.2306   27.0462   14.1510 Cl     28  UNL28      -0.0870
    684 C           4.7641   28.5132   14.9891 C.3    28  UNL28       0.1805
    685 H           4.7411   28.3222   16.0651 H      28  UNL28       0.0806
    686 CL          6.1791   29.5182   20.1212 Cl     28  UNL28      -0.0870
    687 CL          5.9847   30.7358   17.4823 Cl     28  UNL28      -0.0870
    688 CL          6.6792   27.9186   17.7389 Cl     28  UNL28      -0.0870
    689 C           5.7406   29.2557   18.4249 C.3    28  UNL28       0.1805
    690 H           4.6812   28.9905   18.3806 H      28  UNL28       0.0806
    691 CL          1.3405   30.1580   22.0927 Cl     28  UNL28      -0.0870
    692 CL          4.2252   29.9333   22.4278 Cl     28  UNL28      -0.0870
    693 CL          2.7213   27.7383   21.2426 Cl     28  UNL28      -0.0870
    694 C           2.8384   29.4978   21.4150 C.3    28  UNL28       0.1805
    695 H           2.9873   29.9315   20.4229 H      28  UNL28       0.0806
    696 CL          3.2835   29.0214   25.2243 Cl     28  UNL28      -0.0870
    697 CL          5.5351   27.4250   24.2938 Cl     28  UNL28      -0.0870
    698 CL          5.9550   30.1792   25.1440 Cl     28  UNL28      -0.0870
    699 C           5.0160   28.7002   25.4087 C.3    28  UNL28       0.1805
    700 H           5.1952   28.3573   26.4309 H      28  UNL28       0.0806
    701 CL          2.2061   30.8934   29.7797 Cl     28  UNL28      -0.0870
    702 CL          3.5544   28.7139   28.3955 Cl     28  UNL28      -0.0870
    703 CL          1.0085   29.7186   27.3985 Cl     28  UNL28      -0.0870
    704 C           2.5268   30.1446   28.2064 C.3    28  UNL28       0.1805
    705 H           3.0569   30.8689   27.5826 H      28  UNL28       0.0806
    706 CL          3.1305   28.4923   31.4238 Cl     28  UNL28      -0.0870
    707 CL          4.2689   30.9674   32.4543 Cl     28  UNL28      -0.0870
    708 CL          4.3869   28.5343   34.0513 Cl     28  UNL28      -0.0870
    709 C           4.4189   29.2027   32.4108 C.3    28  UNL28       0.1805
    710 H           5.3799   28.9503   31.9552 H      28  UNL28       0.0806
    711 CL          3.7946   28.1612   37.2219 Cl     28  UNL28      -0.0870
    712 CL          1.1451   26.9513   37.2538 Cl     28  UNL28      -0.0870
    713 CL          1.4221   29.8509   37.2276 Cl     28  UNL28      -0.0870
    714 C           2.1160   28.3164   36.6770 C.3    28  UNL28       0.1805
    715 H           2.1070   28.3074   35.5841 H      28  UNL28       0.0806
    716 CL          4.1768   35.4255    1.6038 Cl     28  UNL28      -0.0870
    717 CL          2.0250   34.1957    0.0736 Cl     28  UNL28      -0.0870
    718 CL          4.2644   35.4457   -1.3076 Cl     28  UNL28      -0.0870
    719 C           3.7626   34.5368    0.1282 C.3    28  UNL28       0.1805
    720 H           4.2999   33.5850    0.1378 H      28  UNL28       0.0806
    721 CL          2.5069   31.9222    1.8949 Cl     28  UNL28      -0.0870
    722 CL          2.5235   32.7366    4.6915 Cl     28  UNL28      -0.0870
    723 CL          4.4001   30.7167    3.7515 Cl     28  UNL28      -0.0870
    724 C           3.5139   32.1913    3.3275 C.3    28  UNL28       0.1805
    725 H           4.2403   32.9742    3.0952 H      28  UNL28       0.0806
    726 CL          7.1346   35.4454    5.2622 Cl     28  UNL28      -0.0870
    727 CL          5.8534   32.8391    5.4858 Cl     28  UNL28      -0.0870
    728 CL          4.2705   35.2687    5.7620 Cl     28  UNL28      -0.0870
    729 C           5.6571   34.5177    4.9541 C.3    28  UNL28       0.1805
    730 H           5.4692   34.5177    3.8774 H      28  UNL28       0.0806
    731 CL          3.1082   33.7187    9.2837 Cl     28  UNL28      -0.0870
    732 CL          5.4496   35.4464    9.4147 Cl     28  UNL28      -0.0870
    733 CL          5.7773   32.5533    9.3285 Cl     28  UNL28      -0.0870
    734 C           4.7958   33.9248    8.7854 C.3    28  UNL28       0.1805
    735 H           4.8299   33.9612    7.6936 H      28  UNL28       0.0806
    736 CL          5.9517   35.3221   12.5275 Cl     28  UNL28      -0.0870
    737 CL          5.5127   32.4784   12.9797 Cl     28  UNL28      -0.0870
    738 CL          3.2729   34.3363   13.1076 Cl     28  UNL28      -0.0870
    739 C           4.8212   33.9729   12.3265 C.3    28  UNL28       0.1805
    740 H           4.6421   33.8307   11.2577 H      28  UNL28       0.0806
    741 CL          3.9928   32.5307   16.1909 Cl     28  UNL28      -0.0870
    742 CL          4.0054   35.4435   16.1939 Cl     28  UNL28      -0.0870
    743 CL          6.4550   33.9758   16.7684 Cl     28  UNL28      -0.0870
    744 C           4.9449   33.9834   15.8416 C.3    28  UNL28       0.1805
    745 H           5.1945   33.9833   14.7775 H      28  UNL28       0.0806
    746 CL          6.1893   35.3754   19.7805 Cl     28  UNL28      -0.0870
    747 CL          4.7570   32.8584   20.0929 Cl     28  UNL28      -0.0870
    748 CL          3.3356   35.3864   20.3641 Cl     28  UNL28      -0.0870
    749 C           4.6490   34.5358   19.5330 C.3    28  UNL28       0.1805
    750 H           4.4300   34.5276   18.4622 H      28  UNL28       0.0806
    751 CL          6.6219   35.0471   23.8752 Cl     28  UNL28      -0.0870
    752 CL          4.8299   32.7511   23.8361 Cl     28  UNL28      -0.0870
    753 CL          3.7513   35.4451   23.5832 Cl     28  UNL28      -0.0870
    754 C           5.1198   34.3832   23.2107 C.3    28  UNL28       0.1805
    755 H           5.2219   34.3221   22.1242 H      28  UNL28       0.0806
    756 CL          6.2753   35.4461   27.2194 Cl     28  UNL28      -0.0870
    757 CL          4.9068   32.9392   27.7913 Cl     28  UNL28      -0.0870
    758 CL          3.3675   35.3767   27.3743 Cl     28  UNL28      -0.0870
    759 C           4.8235   34.4772   26.9158 C.3    28  UNL28       0.1805
    760 H           4.7717   34.2614   25.8456 H      28  UNL28       0.0806
    761 CL          4.8075   35.4462   32.0955 Cl     28  UNL28      -0.0870
    762 CL          6.0838   33.1305   30.8738 Cl     28  UNL28      -0.0870
    763 CL          3.3005   33.7453   30.2735 Cl     28  UNL28      -0.0870
    764 C           4.8932   34.4234   30.6515 C.3    28  UNL28       0.1805
    765 H           5.2117   35.0433   29.8094 H      28  UNL28       0.0806
    766 CL          3.4959   32.6706   37.2542 Cl     28  UNL28      -0.0870
    767 CL          3.1194   34.0786   34.7323 Cl     28  UNL28      -0.0870
    768 CL          1.5954   34.8714   37.0847 Cl     28  UNL28      -0.0870
    769 C           3.1400   34.2323   36.4971 C.3    28  UNL28       0.1805
    770 H           3.9301   34.9357   36.7720 H      28  UNL28       0.0806
    771 CL          7.5302   -0.5800   -0.5958 Cl     28  UNL28      -0.0870
    772 CL          8.0420    1.6874    1.1595 Cl     28  UNL28      -0.0870
    773 CL          8.6552   -1.0155    2.0554 Cl     28  UNL28      -0.0870
    774 C           8.5899    0.0776    0.6626 C.3    28  UNL28       0.1805
    775 H           9.5978    0.1695    0.2499 H      28  UNL28       0.0806
    776 CL          7.0515    2.1611    6.3730 Cl     28  UNL28      -0.0870
    777 CL          6.3792    2.7096    3.5925 Cl     28  UNL28      -0.0870
    778 CL          7.3458    0.0724    4.3643 Cl     28  UNL28      -0.0870
    779 C           6.4013    1.4833    4.8709 C.3    28  UNL28       0.1805
    780 H           5.3735    1.1606    5.0558 H      28  UNL28       0.0806
    781 CL          8.7040   -0.6173    7.1943 Cl     28  UNL28      -0.0870
    782 CL         10.0818   -0.8045    9.7537 Cl     28  UNL28      -0.0870
    783 CL          9.5645    1.8041    8.5655 Cl     28  UNL28      -0.0870
    784 C           8.9604    0.1511    8.7699 C.3    28  UNL28       0.1805
    785 H           8.0003    0.1977    9.2901 H      28  UNL28       0.0806
    786 CL          9.6436    1.5727   14.1500 Cl     28  UNL28      -0.0870
    787 CL          8.1700    0.2019   12.0443 Cl     28  UNL28      -0.0870
    788 CL          7.8545    3.0745   12.4099 Cl     28  UNL28      -0.0870
    789 C           8.9769    1.7075   12.5141 C.3    28  UNL28       0.1805
    790 H           9.8022    1.8865   11.8201 H      28  UNL28       0.0806
    791 CL          7.1182   -1.4442   15.2381 Cl     28  UNL28      -0.0870
    792 CL          4.9237   -0.1215   16.6233 Cl     28  UNL28      -0.0870
    793 CL          6.2132    1.1812   14.3594 Cl     28  UNL28      -0.0870
    794 C           5.7209   -0.3696   15.0607 C.3    28  UNL28       0.1805
    795 H           5.0071   -0.8430   14.3817 H      28  UNL28       0.0806
    796 CL          7.2890   -0.7079   18.2651 Cl     28  UNL28      -0.0870
    797 CL          8.8099    1.7730   18.3930 Cl     28  UNL28      -0.0870
    798 CL          9.8808   -0.5192   16.9494 Cl     28  UNL28      -0.0870
    799 C           8.4104    0.3591   17.4032 C.3    28  UNL28       0.1805
    800 H           7.9212    0.7060   16.4894 H      28  UNL28       0.0806
    801 CL          9.5897    2.1155   21.3164 Cl     28  UNL28      -0.0870
    802 CL          9.1659   -0.6352   22.1757 Cl     28  UNL28      -0.0870
    803 CL          7.2409    1.4288   22.8962 Cl     28  UNL28      -0.0870
    804 C           8.3807    0.8673   21.6613 C.3    28  UNL28       0.1805
    805 H           7.8221    0.6667   20.7435 H      28  UNL28       0.0806
    806 CL         11.0627    1.8982   25.8880 Cl     28  UNL28      -0.0870
    807 CL         10.3744   -0.8160   25.0857 Cl     28  UNL28      -0.0870
    808 CL          8.2728    1.0644   25.8150 Cl     28  UNL28      -0.0870
    809 C           9.8677    0.8814   25.0652 C.3    28  UNL28       0.1805
    810 H           9.7976    1.2070   24.0242 H      28  UNL28       0.0806
    811 CL         11.3430   -0.1273   28.3809 Cl     28  UNL28      -0.0870
    812 CL          9.4179   -0.2438   30.5637 Cl     28  UNL28      -0.0870
    813 CL          9.4992    2.0852   28.8160 Cl     28  UNL28      -0.0870
    814 C           9.7165    0.3295   28.9141 C.3    28  UNL28       0.1805
    815 H           8.9906   -0.1446   28.2486 H      28  UNL28       0.0806
    816 CL         11.7708    1.7701   32.9916 Cl     28  UNL28      -0.0870
    817 CL         10.5587    0.7245   35.4250 Cl     28  UNL28      -0.0870
    818 CL          8.8724    1.7403   33.2780 Cl     28  UNL28      -0.0870
    819 C          10.3835    0.9028   33.6710 C.3    28  UNL28       0.1805
    820 H          10.3498   -0.0947   33.2255 H      28  UNL28       0.0806
    821 CL          7.3798   -0.3676   37.2535 Cl     28  UNL28      -0.0870
    822 CL          6.4011    0.8390   34.7897 Cl     28  UNL28      -0.0870
    823 CL          7.9474   -1.6275   34.6894 Cl     28  UNL28      -0.0870
    824 C           6.7725   -0.6818   35.6191 C.3    28  UNL28       0.1805
    825 H           5.8505   -1.2631   35.7007 H      28  UNL28       0.0806
    826 CL         10.5323    3.6300    0.2603 Cl     28  UNL28      -0.0870
    827 CL          9.3336    3.8718    2.9039 Cl     28  UNL28      -0.0870
    828 CL         10.6147    6.1781    1.6691 Cl     28  UNL28      -0.0870
    829 C           9.6749    4.7045    1.3779 C.3    28  UNL28       0.1805
    830 H           8.7236    4.9881    0.9205 H      28  UNL28       0.0806
    831 CL         10.3470    5.6597    4.8493 Cl     28  UNL28      -0.0870
    832 CL          9.0607    8.0562    3.8071 Cl     28  UNL28      -0.0870
    833 CL          7.4720    5.6835    4.3825 Cl     28  UNL28      -0.0870
    834 C           8.8770    6.6483    4.8667 C.3    28  UNL28       0.1805
    835 H           8.7143    7.0047    5.8871 H      28  UNL28       0.0806
    836 CL          7.3971    6.5982    7.9557 Cl     28  UNL28      -0.0870
    837 CL          9.8843    5.0927    7.7782 Cl     28  UNL28      -0.0870
    838 CL          7.5977    3.9669    9.1885 Cl     28  UNL28      -0.0870
    839 C           8.1169    4.9840    7.8338 C.3    28  UNL28       0.1805
    840 H           7.7712    4.5226    6.9052 H      28  UNL28       0.0806
    841 CL         10.8873    3.8618   10.3419 Cl     28  UNL28      -0.0870
    842 CL         11.0059    5.4507   12.7803 Cl     28  UNL28      -0.0870
    843 CL         10.5249    6.7493   10.2176 Cl     28  UNL28      -0.0870
    844 C          10.2569    5.2880   11.1830 C.3    28  UNL28       0.1805
    845 H           9.1802    5.1586   11.3196 H      28  UNL28       0.0806
    846 CL          7.1685    6.9375   15.8148 Cl     28  UNL28      -0.0870
    847 CL          8.7685    4.7888   14.6716 Cl     28  UNL28      -0.0870
    848 CL          7.8221    6.9603   12.9765 Cl     28  UNL28      -0.0870
    849 C           8.3844    6.5166   14.5970 C.3    28  UNL28       0.1805
    850 H           9.2955    7.0811   14.8114 H      28  UNL28       0.0806
    851 CL          8.1513    5.4503   18.3617 Cl     28  UNL28      -0.0870
    852 CL         10.7856    6.5271   18.9824 Cl     28  UNL28      -0.0870
    853 CL         10.5383    4.1604   17.3023 Cl     28  UNL28      -0.0870
    854 C           9.7993    5.7035   17.7627 C.3    28  UNL28       0.1805
    855 H           9.7486    6.3390   16.8749 H      28  UNL28       0.0806
    856 CL         10.6714    5.3953   22.2124 Cl     28  UNL28      -0.0870
    857 CL          7.9864    4.2674   22.2632 Cl     28  UNL28      -0.0870
    858 CL          8.4268    6.9310   21.1696 Cl     28  UNL28      -0.0870
    859 C           9.1115    5.3100   21.3768 C.3    28  UNL28       0.1805
    860 H           9.2749    4.8766   20.3869 H      28  UNL28       0.0806
    861 CL         10.8366    6.1436   25.0968 Cl     28  UNL28      -0.0870
    862 CL          8.8640    4.0005   25.0933 Cl     28  UNL28      -0.0870
    863 CL          8.0859    6.6949   25.8803 Cl     28  UNL28      -0.0870
    864 C           9.1350    5.7309   24.8270 C.3    28  UNL28       0.1805
    865 H           8.8855    5.9623   23.7883 H      28  UNL28       0.0806
    866 CL         10.5451    5.5935   29.4735 Cl     28  UNL28      -0.0870
    867 CL          8.5507    3.8495   30.6839 Cl     28  UNL28      -0.0870
    868 CL          7.7749    6.4704   29.6768 Cl     28  UNL28      -0.0870
    869 C           8.8495    5.0807   29.4456 C.3    28  UNL28       0.1805
    870 H           8.6389    4.6423   28.4667 H      28  UNL28       0.0806
    871 CL          9.1509    6.7745   32.5229 Cl     28  UNL28      -0.0870
    872 CL          7.2293    4.8180   33.5045 Cl     28  UNL28      -0.0870
    873 CL          6.7965    7.6567   33.9933 Cl     28  UNL28      -0.0870
    874 C           7.4416    6.4553   32.8621 C.3    28  UNL28       0.1805
    875 H           6.8849    6.5319   31.9246 H      28  UNL28       0.0806
    876 CL          4.9239    6.3883   37.2537 Cl     28  UNL28      -0.0870
    877 CL          7.7613    7.0466   37.2537 Cl     28  UNL28      -0.0870
    878 CL          6.9127    4.2601   37.2536 Cl     28  UNL28      -0.0870
    879 C           6.5327    5.8985   36.6962 C.3    28  UNL28       0.1805
    880 H           6.5326    5.8985   35.6032 H      28  UNL28       0.0806
    881 CL         10.0090    9.5936    0.0216 Cl     28  UNL28      -0.0870
    882 CL          8.0972   11.2780    1.4330 Cl     28  UNL28      -0.0870
    883 CL         10.9548   11.7695    1.7113 Cl     28  UNL28      -0.0870
    884 C           9.6698   11.2267    0.6188 C.3    28  UNL28       0.1805
    885 H           9.6364   11.9058   -0.2370 H      28  UNL28       0.0806
    886 CL          7.8117   10.4086    5.1220 Cl     28  UNL28      -0.0870
    887 CL          9.5512   12.6579    5.7539 Cl     28  UNL28      -0.0870
    888 CL         10.5839   10.4016    4.2283 Cl     28  UNL28      -0.0870
    889 C           9.1634   11.4070    4.5608 C.3    28  UNL28       0.1805
    890 H           8.8650   11.8987    3.6314 H      28  UNL28       0.0806
    891 CL         10.9776    8.3988    6.7048 Cl     28  UNL28      -0.0870
    892 CL          8.7424    9.1586    8.4109 Cl     28  UNL28      -0.0870
    893 CL         11.2037   10.7157    8.4555 Cl     28  UNL28      -0.0870
    894 C          10.1088    9.7505    7.4511 C.3    28  UNL28       0.1805
    895 H           9.7187   10.3900    6.6551 H      28  UNL28       0.0806
    896 CL         10.7129    9.2628   11.8969 Cl     28  UNL28      -0.0870
    897 CL          8.0102   10.0620   11.1615 Cl     28  UNL28      -0.0870
    898 CL          9.6610   11.8298   12.7847 Cl     28  UNL28      -0.0870
    899 C           9.6583   10.6256   11.4851 C.3    28  UNL28       0.1805
    900 H          10.0448   11.0975   10.5781 H      28  UNL28       0.0806
    901 CL         10.6300   11.3869   15.5392 Cl     28  UNL28      -0.0870
    902 CL         10.5338    8.7414   16.7541 Cl     28  UNL28      -0.0870
    903 CL          8.3618    9.6320   15.0296 Cl     28  UNL28      -0.0870
    904 C          10.1060    9.7073   15.3319 C.3    28  UNL28       0.1805
    905 H          10.6237    9.2901   14.4644 H      28  UNL28       0.0806
    906 CL          7.1265    9.1581   18.4559 Cl     28  UNL28      -0.0870
    907 CL          7.0580   11.6014   16.8717 Cl     28  UNL28      -0.0870
    908 CL          8.2693   11.6166   19.5207 Cl     28  UNL28      -0.0870
    909 C           7.9774   10.6602   18.0581 C.3    28  UNL28       0.1805
    910 H           8.9438   10.4016   17.6177 H      28  UNL28       0.0806
    911 CL         10.6111   11.9813   21.5338 Cl     28  UNL28      -0.0870
    912 CL         11.2910    9.3469   22.5740 Cl     28  UNL28      -0.0870
    913 CL          8.5355    9.9637   21.8587 Cl     28  UNL28      -0.0870
    914 C          10.2403   10.2500   21.4699 C.3    28  UNL28       0.1805
    915 H          10.4251    9.8961   20.4525 H      28  UNL28       0.0806
    916 CL         10.2577   11.1877   26.1661 Cl     28  UNL28      -0.0870
    917 CL          9.0484    9.1082   24.5238 Cl     28  UNL28      -0.0870
    918 CL          7.4757   11.4217   25.3357 Cl     28  UNL28      -0.0870
    919 C           9.0875   10.8429   24.8814 C.3    28  UNL28       0.1805
    920 H           9.4016   11.3733   23.9788 H      28  UNL28       0.0806
    921 CL         11.7019   10.9882   29.2371 Cl     28  UNL28      -0.0870
    922 CL         10.2879    8.7638   30.4768 Cl     28  UNL28      -0.0870
    923 CL          8.8543   10.6190   28.7483 Cl     28  UNL28      -0.0870
    924 C          10.3987    9.8033   29.0465 C.3    28  UNL28       0.1805
    925 H          10.6285    9.1754   28.1819 H      28  UNL28       0.0806
    926 CL          7.7959    9.8419   31.8495 Cl     28  UNL28      -0.0870
    927 CL          7.2417   12.4140   33.0991 Cl     28  UNL28      -0.0870
    928 CL          9.9100   11.8315   32.0865 Cl     28  UNL28      -0.0870
    929 C           8.1734   11.5729   31.8488 C.3    28  UNL28       0.1805
    930 H           7.8942   11.9854   30.8759 H      28  UNL28       0.0806
    931 CL          9.6831    9.7673   34.7383 Cl     28  UNL28      -0.0870
    932 CL          8.1924   10.2377   37.1961 Cl     28  UNL28      -0.0870
    933 CL         10.6321    8.6474   37.2541 Cl     28  UNL28      -0.0870
    934 C           9.8010   10.0123   36.4890 C.3    28  UNL28       0.1805
    935 H          10.3866   10.9172   36.6708 H      28  UNL28       0.0806
    936 CL         11.2416   13.9236   -0.6112 Cl     28  UNL28      -0.0870
    937 CL          9.1014   14.7208    1.1967 Cl     28  UNL28      -0.0870
    938 CL         11.8540   14.6356    2.1460 Cl     28  UNL28      -0.0870
    939 C          10.8013   14.9584    0.7578 C.3    28  UNL28       0.1805
    940 H          10.9368   16.0008    0.4584 H      28  UNL28       0.0806
    941 CL          9.7896   15.4676    4.4455 Cl     28  UNL28      -0.0870
    942 CL          7.3895   16.7827    3.4485 Cl     28  UNL28      -0.0870
    943 CL          7.1910   14.1902    4.7615 Cl     28  UNL28      -0.0870
    944 C           8.0583   15.7344    4.7103 C.3    28  UNL28       0.1805
    945 H           7.9307   16.2326    5.6748 H      28  UNL28       0.0806
    946 CL          7.6070   15.5647    9.2634 Cl     28  UNL28      -0.0870
    947 CL         10.0268   14.9207    7.7754 Cl     28  UNL28      -0.0870
    948 CL          8.4278   12.7877    8.9496 Cl     28  UNL28      -0.0870
    949 C           8.3891   14.3894    8.1930 C.3    28  UNL28       0.1805
    950 H           7.8044   14.3206    7.2721 H      28  UNL28       0.0806
    951 CL          8.6039   14.3213   11.8621 Cl     28  UNL28      -0.0870
    952 CL         11.0542   13.8690   10.3537 Cl     28  UNL28      -0.0870
    953 CL         10.6232   16.4144   11.7026 Cl     28  UNL28      -0.0870
    954 C          10.3388   14.6667   11.7645 C.3    28  UNL28       0.1805
    955 H          10.8191   14.2717   12.6634 H      28  UNL28       0.0806
    956 CL          8.3394   14.0271   14.8742 Cl     28  UNL28      -0.0870
    957 CL          9.2272   16.3866   16.3332 Cl     28  UNL28      -0.0870
    958 CL         11.1844   14.5979   15.1271 Cl     28  UNL28      -0.0870
    959 C           9.5657   15.3019   14.9740 C.3    28  UNL28       0.1805
    960 H           9.5305   15.8859   14.0508 H      28  UNL28       0.0806
    961 CL          7.4734   16.5113   18.8654 Cl     28  UNL28      -0.0870
    962 CL          8.6944   14.0261   17.9614 Cl     28  UNL28      -0.0870
    963 CL          6.0178   14.0003   19.1104 Cl     28  UNL28      -0.0870
    964 C           7.1769   14.9231   18.1386 C.3    28  UNL28       0.1805
    965 H           6.7486   15.0744   17.1444 H      28  UNL28       0.0806
    966 CL         10.3646   15.2067   21.9630 Cl     28  UNL28      -0.0870
    967 CL          8.1147   13.3568   21.9716 Cl     28  UNL28      -0.0870
    968 CL          7.6376   16.2303   21.9603 Cl     28  UNL28      -0.0870
    969 C           8.7054   14.9289   21.4075 C.3    28  UNL28       0.1805
    970 H           8.7049   14.9246   20.3145 H      28  UNL28       0.0806
    971 CL          7.8601   13.9525   26.8809 Cl     28  UNL28      -0.0870
    972 CL          8.7649   16.4603   25.7078 Cl     28  UNL28      -0.0870
    973 CL         10.1001   13.9648   25.0190 Cl     28  UNL28      -0.0870
    974 C           8.5552   14.7211   25.4439 C.3    28  UNL28       0.1805
    975 H           7.8627   14.5807   24.6100 H      28  UNL28       0.0806
    976 CL         10.9163   16.4255   29.6541 Cl     28  UNL28      -0.0870
    977 CL          9.6840   13.7872   29.5819 Cl     28  UNL28      -0.0870
    978 CL          8.0852   16.1572   29.0239 Cl     28  UNL28      -0.0870
    979 C           9.6866   15.4131   28.8784 C.3    28  UNL28       0.1805
    980 H           9.9310   15.3281   27.8165 H      28  UNL28       0.0806
    981 CL          6.1709   16.3896   31.6353 Cl     28  UNL28      -0.0870
    982 CL          7.0238   15.6923   34.3317 Cl     28  UNL28      -0.0870
    983 CL          8.9981   15.9899   32.2108 Cl     28  UNL28      -0.0870
    984 C           7.4488   16.5651   32.8497 C.3    28  UNL28       0.1805
    985 H           7.5494   17.6261   33.0922 H      28  UNL28       0.0806
    986 CL         10.9438   14.2399   37.2541 Cl     28  UNL28      -0.0870
    987 CL         10.0835   15.9311   35.0442 Cl     28  UNL28      -0.0870
    988 CL          9.7268   13.0441   34.8934 Cl     28  UNL28      -0.0870
    989 C           9.7480   14.4551   35.9648 C.3    28  UNL28       0.1805
    990 H           8.7610   14.5531   36.4240 H      28  UNL28       0.0806
    991 CL          8.2085   17.7494    0.1716 Cl     28  UNL28      -0.0870
    992 CL          7.9226   19.5940    2.4076 Cl     28  UNL28      -0.0870
    993 CL         10.2245   17.8142    2.2730 Cl     28  UNL28      -0.0870
    994 C           9.0682   18.7735    1.3338 C.3    28  UNL28       0.1805
    995 H           9.6233   19.5334    0.7778 H      28  UNL28       0.0806
    996 CL         11.6210   20.7626    5.4720 Cl     28  UNL28      -0.0870
    997 CL          9.5628   18.7378    5.0874 Cl     28  UNL28      -0.0870
    998 CL          8.9936   21.5280    4.4746 Cl     28  UNL28      -0.0870
    999 C          10.2347   20.2636    4.4882 C.3    28  UNL28       0.1805
   1000 H          10.5790   20.1086    3.4625 H      28  UNL28       0.0806
   1001 CL          6.1651   20.5520    6.2907 Cl     28  UNL28      -0.0870
   1002 CL          7.1702   18.0751    7.4479 Cl     28  UNL28      -0.0870
   1003 CL          8.8423   20.4602    7.4346 Cl     28  UNL28      -0.0870
   1004 C           7.1856   19.8435    7.5538 C.3    28  UNL28       0.1805
   1005 H           6.7799   20.1334    8.5264 H      28  UNL28       0.0806
   1006 CL         10.3022   19.6576   10.7526 Cl     28  UNL28      -0.0870
   1007 CL          8.0114   18.0222   11.5022 Cl     28  UNL28      -0.0870
   1008 CL          7.9371   20.9059   11.9067 Cl     28  UNL28      -0.0870
   1009 C           8.5360   19.5945   10.8767 C.3    28  UNL28       0.1805
   1010 H           8.1161   19.7241    9.8760 H      28  UNL28       0.0806
   1011 CL          7.9957   20.6729   14.7398 Cl     28  UNL28      -0.0870
   1012 CL         10.7040   20.6823   13.6679 Cl     28  UNL28      -0.0870
   1013 CL         10.1293   19.2908   16.1616 Cl     28  UNL28      -0.0870
   1014 C           9.4983   19.7497   14.5708 C.3    28  UNL28       0.1805
   1015 H           9.2798   18.8367   14.0110 H      28  UNL28       0.0806
   1016 CL          6.5486   21.3281   17.2599 Cl     28  UNL28      -0.0870
   1017 CL          6.4470   18.4430   16.8729 Cl     28  UNL28      -0.0870
   1018 CL          8.4721   19.6089   18.6120 Cl     28  UNL28      -0.0870
   1019 C           6.8094   19.7472   18.0158 C.3    28  UNL28       0.1805
   1020 H           6.1301   19.6571   18.8674 H      28  UNL28       0.0806
   1021 CL          8.1224   20.7507   21.5030 Cl     28  UNL28      -0.0870
   1022 CL          9.6067   18.2822   21.0696 Cl     28  UNL28      -0.0870
   1023 CL         10.9731   20.8500   20.9135 Cl     28  UNL28      -0.0870
   1024 C           9.6810   19.9335   21.7071 C.3    28  UNL28       0.1805
   1025 H           9.9039   19.8800   22.7758 H      28  UNL28       0.0806
   1026 CL          7.5997   18.9242   23.9445 Cl     28  UNL28      -0.0870
   1027 CL          8.8591   21.4753   24.5687 Cl     28  UNL28      -0.0870
   1028 CL          7.1775   20.1580   26.5490 Cl     28  UNL28      -0.0870
   1029 C           8.3245   19.9170   25.2203 C.3    28  UNL28       0.1805
   1030 H           9.1983   19.3898   25.6116 H      28  UNL28       0.0806
   1031 CL          9.3291   18.9320   28.2404 Cl     28  UNL28      -0.0870
   1032 CL         10.5435   21.4106   27.3099 Cl     28  UNL28      -0.0870
   1033 CL          8.3855   21.4902   29.2648 Cl     28  UNL28      -0.0870
   1034 C           9.7927   20.5832   28.6848 C.3    28  UNL28       0.1805
   1035 H          10.5244   20.5286   29.4948 H      28  UNL28       0.0806
   1036 CL          7.4000   19.1484   30.8392 Cl     28  UNL28      -0.0870
   1037 CL          6.3441   20.3663   33.2653 Cl     28  UNL28      -0.0870
   1038 CL          9.2001   19.8493   33.0192 Cl     28  UNL28      -0.0870
   1039 C           7.7204   20.2940   32.1521 C.3    28  UNL28       0.1805
   1040 H           7.8624   21.2861   31.7159 H      28  UNL28       0.0806
   1041 CL         11.2367   19.8055   35.2663 Cl     28  UNL28      -0.0870
   1042 CL          8.6178   18.5893   35.6489 Cl     28  UNL28      -0.0870
   1043 CL         10.8825   17.7058   37.2538 Cl     28  UNL28      -0.0870
   1044 C          10.1231   19.0849   36.4408 C.3    28  UNL28       0.1805
   1045 H           9.8831   19.8390   37.1946 H      28  UNL28       0.0806
   1046 CL          8.8713   23.2995    1.3202 Cl     28  UNL28      -0.0870
   1047 CL         10.8130   25.3418    0.5832 Cl     28  UNL28      -0.0870
   1048 CL          7.9626   25.8770    0.3130 Cl     28  UNL28      -0.0870
   1049 C           9.2038   25.0386    1.2593 C.3    28  UNL28       0.1805
   1050 H           9.1803   25.4291    2.2799 H      28  UNL28       0.0806
   1051 CL         10.1861   24.5263    4.5185 Cl     28  UNL28      -0.0870
   1052 CL          8.2835   25.9529    6.2004 Cl     28  UNL28      -0.0870
   1053 CL          7.3314   24.3369    3.9717 Cl     28  UNL28      -0.0870
   1054 C           8.5654   24.4956    5.2333 C.3    28  UNL28       0.1805
   1055 H           8.4968   23.6265    5.8927 H      28  UNL28       0.0806
   1056 CL         10.9632   24.9381    8.1451 Cl     28  UNL28      -0.0870
   1057 CL         11.1711   22.0950    8.7431 Cl     28  UNL28      -0.0870
   1058 CL          8.5575   23.3037    8.3039 Cl     28  UNL28      -0.0870
   1059 C          10.2706   23.3339    7.8527 C.3    28  UNL28       0.1805
   1060 H          10.3488   23.1151    6.7846 H      28  UNL28       0.0806
   1061 CL          7.2022   23.9353   12.2210 Cl     28  UNL28      -0.0870
   1062 CL          9.3073   25.9441   12.3524 Cl     28  UNL28      -0.0870
   1063 CL          9.8418   23.3516   11.1367 Cl     28  UNL28      -0.0870
   1064 C           8.6243   24.6099   11.4079 C.3    28  UNL28       0.1805
   1065 H           8.3116   25.0010   10.4363 H      28  UNL28       0.0806
   1066 CL         11.3367   25.2928   16.3718 Cl     28  UNL28      -0.0870
   1067 CL          9.8597   23.8076   14.3477 Cl     28  UNL28      -0.0870
   1068 CL          8.4365   25.5197   16.2260 Cl     28  UNL28      -0.0870
   1069 C           9.9289   25.3023   15.2962 C.3    28  UNL28       0.1805
   1070 H          10.0295   26.1436   14.6057 H      28  UNL28       0.0806
   1071 CL         10.1853   22.2444   16.8609 Cl     28  UNL28      -0.0870
   1072 CL          8.9007   22.4710   19.4653 Cl     28  UNL28      -0.0870
   1073 CL         11.4934   23.7169   19.0068 Cl     28  UNL28      -0.0870
   1074 C           9.9390   23.2783   18.2783 C.3    28  UNL28       0.1805
   1075 H           9.4409   24.1952   17.9528 H      28  UNL28       0.0806
   1076 CL          8.0530   25.0242   20.5916 Cl     28  UNL28      -0.0870
   1077 CL          7.3655   23.7853   23.1365 Cl     28  UNL28      -0.0870
   1078 CL         10.1059   23.6734   22.1553 Cl     28  UNL28      -0.0870
   1079 C           8.6218   24.6389   22.2246 C.3    28  UNL28       0.1805
   1080 H           8.8450   25.5760   22.7411 H      28  UNL28       0.0806
   1081 CL         11.9281   23.0758   25.0847 Cl     28  UNL28      -0.0870
   1082 CL          9.7052   24.7051   26.0270 Cl     28  UNL28      -0.0870
   1083 CL         12.3783   25.1244   27.1058 Cl     28  UNL28      -0.0870
   1084 C          11.4404   24.6748   25.6713 C.3    28  UNL28       0.1805
   1085 H          11.6432   25.4061   24.8848 H      28  UNL28       0.0806
   1086 CL         10.4281   26.1548   30.8040 Cl     28  UNL28      -0.0870
   1087 CL         10.5416   23.7639   29.1442 Cl     28  UNL28      -0.0870
   1088 CL          7.9664   24.8189   30.0044 Cl     28  UNL28      -0.0870
   1089 C           9.6223   25.2294   29.5261 C.3    28  UNL28       0.1805
   1090 H           9.5768   25.8507   28.6281 H      28  UNL28       0.0806
   1091 CL         10.8304   23.0544   32.1758 Cl     28  UNL28      -0.0870
   1092 CL          9.2491   22.4284   34.5404 Cl     28  UNL28      -0.0870
   1093 CL         10.2813   25.1242   34.1502 Cl     28  UNL28      -0.0870
   1094 C           9.6551   23.6739   33.3477 C.3    28  UNL28       0.1805
   1095 H           8.7433   23.9452   32.8096 H      28  UNL28       0.0806
   1096 CL          8.8726   24.3269   37.0926 Cl     28  UNL28      -0.0870
   1097 CL          7.2635   26.6603   36.4216 Cl     28  UNL28      -0.0870
   1098 CL          6.8925   24.1667   34.9624 Cl     28  UNL28      -0.0870
   1099 C           7.2909   24.8922   36.5290 C.3    28  UNL28       0.1805
   1100 H           6.5356   24.5799   37.2547 H      28  UNL28       0.0806
   1101 CL          6.4206   31.6540    0.0929 Cl     28  UNL28      -0.0870
   1102 CL          6.2990   28.7484    0.2568 Cl     28  UNL28      -0.0870
   1103 CL          8.6935   30.1576    1.1315 Cl     28  UNL28      -0.0870
   1104 C           6.9272   30.2245    1.0085 C.3    28  UNL28       0.1805
   1105 H           6.5148   30.2987    2.0180 H      28  UNL28       0.0806
   1106 CL          7.5248   27.5861    3.2721 Cl     28  UNL28      -0.0870
   1107 CL          9.9568   29.1647    3.5499 Cl     28  UNL28      -0.0870
   1108 CL          7.4437   30.1578    4.6373 Cl     28  UNL28      -0.0870
   1109 C           8.4178   28.7158    4.3040 C.3    28  UNL28       0.1805
   1110 H           8.6321   28.2185    5.2534 H      28  UNL28       0.0806
   1111 CL         10.7733   27.8111    6.6260 Cl     28  UNL28      -0.0870
   1112 CL         12.0706   29.7475    8.3729 Cl     28  UNL28      -0.0870
   1113 CL         10.1451   30.6446    6.3798 Cl     28  UNL28      -0.0870
   1114 C          10.5847   29.3420    7.4975 C.3    28  UNL28       0.1805
   1115 H           9.7774   29.2262    8.2252 H      28  UNL28       0.0806
   1116 CL          7.9767   30.1576   10.2443 Cl     28  UNL28      -0.0870
   1117 CL          9.7843   27.8736   10.2617 Cl     28  UNL28      -0.0870
   1118 CL          7.1144   27.6269   11.4001 Cl     28  UNL28      -0.0870
   1119 C           8.0950   28.3930   10.1388 C.3    28  UNL28       0.1805
   1120 H           7.7088   28.0801    9.1654 H      28  UNL28       0.0806
   1121 CL         11.1965   28.9185   13.1051 Cl     28  UNL28      -0.0870
   1122 CL         12.8482   26.8142   14.2575 Cl     28  UNL28      -0.0870
   1123 CL         12.6741   29.4106   15.5666 Cl     28  UNL28      -0.0870
   1124 C          11.8036   28.2017   14.6073 C.3    28  UNL28       0.1805
   1125 H          10.9487   27.8503   15.1906 H      28  UNL28       0.0806
   1126 CL         10.1427   27.8390   17.6082 Cl     28  UNL28      -0.0870
   1127 CL         11.6033   30.1577   18.5955 Cl     28  UNL28      -0.0870
   1128 CL          9.7708   30.4390   16.3488 Cl     28  UNL28      -0.0870
   1129 C          10.0893   29.5903   17.8711 C.3    28  UNL28       0.1805
   1130 H           9.2731   29.8092   18.5642 H      28  UNL28       0.0806
   1131 CL          9.5425   29.9515   21.3540 Cl     28  UNL28      -0.0870
   1132 CL         10.4367   27.1980   21.0325 Cl     28  UNL28      -0.0870
   1133 CL          7.7313   27.7521   21.9591 Cl     28  UNL28      -0.0870
   1134 C           9.0569   28.3036   20.9209 C.3    28  UNL28       0.1805
   1135 H           8.7038   28.3099   19.8866 H      28  UNL28       0.0806
   1136 CL          9.9465   27.2082   24.3806 Cl     28  UNL28      -0.0870
   1137 CL          8.0013   27.6307   26.5070 Cl     28  UNL28      -0.0870
   1138 CL          9.4992   29.8867   25.4340 Cl     28  UNL28      -0.0870
   1139 C           8.7506   28.3251   25.0596 C.3    28  UNL28       0.1805
   1140 H           7.9696   28.4884   24.3126 H      28  UNL28       0.0806
   1141 CL          7.8878   29.6605   29.0038 Cl     28  UNL28      -0.0870
   1142 CL         10.3692   30.7361   30.0855 Cl     28  UNL28      -0.0870
   1143 CL         10.4078   28.2846   28.5128 Cl     28  UNL28      -0.0870
   1144 C           9.6278   29.8597   28.7361 C.3    28  UNL28       0.1805
   1145 H           9.7705   30.4464   27.8250 H      28  UNL28       0.0806
   1146 CL          8.2288   27.6654   33.7183 Cl     28  UNL28      -0.0870
   1147 CL          7.8984   30.1575   32.2470 Cl     28  UNL28      -0.0870
   1148 CL         10.4290   28.7200   32.1274 Cl     28  UNL28      -0.0870
   1149 C           8.6689   28.5623   32.2551 C.3    28  UNL28       0.1805
   1150 H           8.3099   28.0025   31.3877 H      28  UNL28       0.0806
   1151 CL          6.6145   29.6859   37.2540 Cl     28  UNL28      -0.0870
   1152 CL          5.7743   31.4958   35.1320 Cl     28  UNL28      -0.0870
   1153 CL          8.5851   30.7845   35.4117 Cl     28  UNL28      -0.0870
   1154 C           6.9151   30.2207   35.5919 C.3    28  UNL28       0.1805
   1155 H           6.7659   29.3684   34.9242 H      28  UNL28       0.0806
   1156 CL          7.1768   35.0066   -0.0486 Cl     28  UNL28      -0.0870
   1157 CL          7.4001   33.5267    2.4502 Cl     28  UNL28      -0.0870
   1158 CL          9.6609   33.6390    0.6169 Cl     28  UNL28      -0.0870
   1159 C           8.2638   34.5171    1.2620 C.3    28  UNL28       0.1805
   1160 H           8.6256   35.4184    1.7633 H      28  UNL28       0.0806
   1161 CL         11.6634   34.3114    3.0310 Cl     28  UNL28      -0.0870
   1162 CL         12.2297   31.8425    4.4691 Cl     28  UNL28      -0.0870
   1163 CL          9.5414   32.9637    4.5025 Cl     28  UNL28      -0.0870
   1164 C          11.0164   32.7444    3.5455 C.3    28  UNL28       0.1805
   1165 H          10.7642   32.1666    2.6526 H      28  UNL28       0.0806
   1166 CL          8.4000   33.4705    7.5224 Cl     28  UNL28      -0.0870
   1167 CL         10.2505   35.4055    6.3753 Cl     28  UNL28      -0.0870
   1168 CL          9.6861   35.4465    9.2327 Cl     28  UNL28      -0.0870
   1169 C           9.8686   34.4221    7.7986 C.3    28  UNL28       0.1805
   1170 H          10.6980   33.7318    7.9724 H      28  UNL28       0.0806
   1171 CL         10.5849   31.7046   12.4232 Cl     28  UNL28      -0.0870
   1172 CL         10.3983   31.8669    9.5210 Cl     28  UNL28      -0.0870
   1173 CL          8.3605   33.1189   11.1837 Cl     28  UNL28      -0.0870
   1174 C          10.0775   32.7023   11.0499 C.3    28  UNL28       0.1805
   1175 H          10.6581   33.6282   11.0644 H      28  UNL28       0.0806
   1176 CL          8.4475   33.7209   14.1968 Cl     28  UNL28      -0.0870
   1177 CL         11.3250   33.5236   14.6038 Cl     28  UNL28      -0.0870
   1178 CL         10.2522   35.4456   12.6959 Cl     28  UNL28      -0.0870
   1179 C           9.9775   34.6134   14.2357 C.3    28  UNL28       0.1805
   1180 H           9.9170   35.3651   15.0269 H      28  UNL28       0.0806
   1181 CL         11.2720   33.0346   18.0057 Cl     28  UNL28      -0.0870
   1182 CL          8.4147   32.5260   18.2531 Cl     28  UNL28      -0.0870
   1183 CL          9.3831   35.2486   17.8863 Cl     28  UNL28      -0.0870
   1184 C           9.6529   33.5416   17.4955 C.3    28  UNL28       0.1805
   1185 H           9.5805   33.4213   16.4116 H      28  UNL28       0.0806
   1186 CL          9.3252   35.3413   21.7151 Cl     28  UNL28      -0.0870
   1187 CL         11.0739   33.0124   21.7633 Cl     28  UNL28      -0.0870
   1188 CL          8.1825   32.6621   21.7204 Cl     28  UNL28      -0.0870
   1189 C           9.5361   33.6670   21.1755 C.3    28  UNL28       0.1805
   1190 H           9.5534   33.6575   20.0827 H      28  UNL28       0.0806
   1191 CL         11.2808   32.1805   25.7011 Cl     28  UNL28      -0.0870
   1192 CL          8.3793   32.4359   25.6822 Cl     28  UNL28      -0.0870
   1193 CL         10.0300   34.4845   24.4318 Cl     28  UNL28      -0.0870
   1194 C           9.8754   32.7560   24.7888 C.3    28  UNL28       0.1805
   1195 H           9.8338   32.2116   23.8419 H      28  UNL28       0.0806
   1196 CL         11.1463   33.4802   28.9454 Cl     28  UNL28      -0.0870
   1197 CL          8.3375   32.7750   28.6326 Cl     28  UNL28      -0.0870
   1198 CL          9.0775   35.4456   29.5299 Cl     28  UNL28      -0.0870
   1199 C           9.5358   34.0738   28.5064 C.3    28  UNL28       0.1805
   1200 H           9.5660   34.4142   27.4682 H      28  UNL28       0.0806
   1201 CL         10.5507   35.0229   32.7663 Cl     28  UNL28      -0.0870
   1202 CL         10.9330   32.1363   32.6963 Cl     28  UNL28      -0.0870
   1203 CL          8.2549   33.2441   32.9874 Cl     28  UNL28      -0.0870
   1204 C           9.8551   33.4735   32.2622 C.3    28  UNL28       0.1805
   1205 H           9.7416   33.4849   31.1752 H      28  UNL28       0.0806
   1206 CL          9.4978   33.7058   36.9889 Cl     28  UNL28      -0.0870
   1207 CL          6.6372   34.1859   37.2546 Cl     28  UNL28      -0.0870
   1208 CL          8.1311   35.4462   35.0948 Cl     28  UNL28      -0.0870
   1209 C           7.9845   34.0073   36.1183 C.3    28  UNL28       0.1805
   1210 H           7.7806   33.1473   35.4753 H      28  UNL28       0.0806
   1211 CL         16.7067   -0.4568   -0.2593 Cl     28  UNL28      -0.0870
   1212 CL         15.7649   -1.3410    2.3513 Cl     28  UNL28      -0.0870
   1213 CL         13.8847   -1.0543    0.1451 Cl     28  UNL28      -0.0870
   1214 C          15.5434   -1.4808    0.5991 C.3    28  UNL28       0.1805
   1215 H          15.7222   -2.5200    0.3116 H      28  UNL28       0.0806
   1216 CL         12.3649   -0.4042    4.5751 Cl     28  UNL28      -0.0870
   1217 CL         10.7184    1.6614    5.8027 Cl     28  UNL28      -0.0870
   1218 CL         10.7779    1.3774    2.9043 Cl     28  UNL28      -0.0870
   1219 C          10.8593    0.5217    4.4536 C.3    28  UNL28       0.1805
   1220 H          10.0207   -0.1774    4.5048 H      28  UNL28       0.0806
   1221 CL         13.2638    2.7527    8.3170 Cl     28  UNL28      -0.0870
   1222 CL         15.3816    0.9004    7.5634 Cl     28  UNL28      -0.0870
   1223 CL         12.6274   -0.0309    7.7422 Cl     28  UNL28      -0.0870
   1224 C          13.6793    1.3362    7.3375 C.3    28  UNL28       0.1805
   1225 H          13.5256    1.5887    6.2853 H      28  UNL28       0.0806
   1226 CL         13.1484    0.6346   11.9446 Cl     28  UNL28      -0.0870
   1227 CL         15.8933    1.1037   11.0905 Cl     28  UNL28      -0.0870
   1228 CL         14.8796   -1.6187   11.3046 Cl     28  UNL28      -0.0870
   1229 C          14.4717    0.0611   10.9157 C.3    28  UNL28       0.1805
   1230 H          14.1406    0.1024    9.8748 H      28  UNL28       0.0806
   1231 CL         16.6148   -1.0224   13.8080 Cl     28  UNL28      -0.0870
   1232 CL         15.8735   -2.4606   16.2300 Cl     28  UNL28      -0.0870
   1233 CL         13.8276   -1.7137   14.2958 Cl     28  UNL28      -0.0870
   1234 C          15.5125   -2.2170   14.5128 C.3    28  UNL28       0.1805
   1235 H          15.6572   -3.1673   13.9926 H      28  UNL28       0.0806
   1236 CL         11.8610    0.4680   19.6169 Cl     28  UNL28      -0.0870
   1237 CL         12.8050   -1.3424   17.5396 Cl     28  UNL28      -0.0870
   1238 CL         12.1240    1.4103   16.8734 Cl     28  UNL28      -0.0870
   1239 C          12.7887    0.3335   18.1136 C.3    28  UNL28       0.1805
   1240 H          13.8188    0.6376   18.3168 H      28  UNL28       0.0806
   1241 CL         14.8948   -1.5413   21.1185 Cl     28  UNL28      -0.0870
   1242 CL         13.0393   -3.0336   22.7961 Cl     28  UNL28      -0.0870
   1243 CL         12.7475   -0.1496   22.5101 Cl     28  UNL28      -0.0870
   1244 C          13.2259   -1.6524   21.7025 C.3    28  UNL28       0.1805
   1245 H          12.5697   -1.8041   20.8417 H      28  UNL28       0.0806
   1246 CL         16.7379   -1.4533   26.3766 Cl     28  UNL28      -0.0870
   1247 CL         16.2513   -2.8164   23.8489 Cl     28  UNL28      -0.0870
   1248 CL         14.0716   -1.4392   25.2042 Cl     28  UNL28      -0.0870
   1249 C          15.8110   -1.4349   24.8669 C.3    28  UNL28       0.1805
   1250 H          16.0540   -0.5172   24.3253 H      28  UNL28       0.0806
   1251 CL         14.7755   -0.5857   28.8706 Cl     28  UNL28      -0.0870
   1252 CL         15.7845   -3.3129   29.0395 Cl     28  UNL28      -0.0870
   1253 CL         12.9999   -2.7478   29.6811 Cl     28  UNL28      -0.0870
   1254 C          14.3801   -2.3003   28.6641 C.3    28  UNL28       0.1805
   1255 H          14.1056   -2.4664   27.6193 H      28  UNL28       0.0806
   1256 CL         15.6792    0.1748   32.1245 Cl     28  UNL28      -0.0870
   1257 CL         15.7410   -2.3790   33.5239 Cl     28  UNL28      -0.0870
   1258 CL         13.2410   -1.3950   32.3984 Cl     28  UNL28      -0.0870
   1259 C          15.0008   -1.4599   32.2026 C.3    28  UNL28       0.1805
   1260 H          15.2235   -1.9699   31.2618 H      28  UNL28       0.0806
   1261 CL         15.3093   -0.2699   37.2548 Cl     28  UNL28      -0.0870
   1262 CL         14.8989    2.5807   36.8190 Cl     28  UNL28      -0.0870
   1263 CL         14.0111    0.6588   34.8183 Cl     28  UNL28      -0.0870
   1264 C          14.2436    0.9570   36.5493 C.3    28  UNL28       0.1805
   1265 H          13.2706    0.8923   37.0430 H      28  UNL28       0.0806
   1266 CL         13.5708    4.7253    1.4558 Cl     28  UNL28      -0.0870
   1267 CL         15.7303    2.8933    0.7744 Cl     28  UNL28      -0.0870
   1268 CL         12.9997    1.9053    1.0026 Cl     28  UNL28      -0.0870
   1269 C          14.0176    3.2784    0.5362 C.3    28  UNL28       0.1805
   1270 H          13.8551    3.4820   -0.5253 H      28  UNL28       0.0806
   1271 CL         14.7291    1.6079    3.8222 Cl     28  UNL28      -0.0870
   1272 CL         15.8472    4.2921    3.6516 Cl     28  UNL28      -0.0870
   1273 CL         13.0470    3.9233    4.3642 Cl     28  UNL28      -0.0870
   1274 C          14.6816    3.2503    4.4849 C.3    28  UNL28       0.1805
   1275 H          14.9567    3.2027    5.5417 H      28  UNL28       0.0806
   1276 CL         16.2327    4.4445    7.3230 Cl     28  UNL28      -0.0870
   1277 CL         15.9599    7.0749    8.5440 Cl     28  UNL28      -0.0870
   1278 CL         13.6567    5.8037    7.2935 Cl     28  UNL28      -0.0870
   1279 C          15.1514    5.5352    8.2062 C.3    28  UNL28       0.1805
   1280 H          14.8930    5.0660    9.1589 H      28  UNL28       0.0806
   1281 CL         13.6176    6.5695   11.2398 Cl     28  UNL28      -0.0870
   1282 CL         14.1202    3.7005   11.2256 Cl     28  UNL28      -0.0870
   1283 CL         16.3425    5.5672   11.4733 Cl     28  UNL28      -0.0870
   1284 C          14.6415    5.2671   11.8678 C.3    28  UNL28       0.1805
   1285 H          14.5397    5.2440   12.9558 H      28  UNL28       0.0806
   1286 CL         14.9500    1.2418   15.7866 Cl     28  UNL28      -0.0870
   1287 CL         13.0901    2.9806   14.3719 Cl     28  UNL28      -0.0870
   1288 CL         15.9177    3.6685   14.4988 Cl     28  UNL28      -0.0870
   1289 C          14.7431    2.3447   14.4157 C.3    28  UNL28       0.1805
   1290 H          14.9207    1.7847   13.4940 H      28  UNL28       0.0806
   1291 CL         15.4738    6.3389   16.5359 Cl     28  UNL28      -0.0870
   1292 CL         14.0264    4.0341   17.5737 Cl     28  UNL28      -0.0870
   1293 CL         16.1076    5.2903   19.1785 Cl     28  UNL28      -0.0870
   1294 C          14.8230    5.5611   17.9886 C.3    28  UNL28       0.1805
   1295 H          14.0789    6.2280   18.4316 H      28  UNL28       0.0806
   1296 CL         12.6424    2.9181   21.9921 Cl     28  UNL28      -0.0870
   1297 CL         15.1127    4.4613   22.0103 Cl     28  UNL28      -0.0870
   1298 CL         14.8218    2.1994   20.1982 Cl     28  UNL28      -0.0870
   1299 C          13.9833    3.5322   21.0104 C.3    28  UNL28       0.1805
   1300 H          13.5733    4.1973   20.2460 H      28  UNL28       0.0806
   1301 CL         14.3737    4.6001   25.7946 Cl     28  UNL28      -0.0870
   1302 CL         16.8407    3.1433   26.3196 Cl     28  UNL28      -0.0870
   1303 CL         14.9733    2.1682   24.3079 Cl     28  UNL28      -0.0870
   1304 C          15.6571    3.6061   25.0852 C.3    28  UNL28       0.1805
   1305 H          16.1691    4.1986   24.3227 H      28  UNL28       0.0806
   1306 CL         12.5408    2.6619   30.0865 Cl     28  UNL28      -0.0870
   1307 CL         15.1348    3.7855   29.3848 Cl     28  UNL28      -0.0870
   1308 CL         13.6814    2.1594   27.4539 Cl     28  UNL28      -0.0870
   1309 C          13.5345    3.3264   28.7790 C.3    28  UNL28       0.1805
   1310 H          13.0420    4.2232   28.3945 H      28  UNL28       0.0806
   1311 CL         13.7925    5.4263   32.2198 Cl     28  UNL28      -0.0870
   1312 CL         15.4419    3.2868   33.3088 Cl     28  UNL28      -0.0870
   1313 CL         16.6431    5.8543   32.6380 Cl     28  UNL28      -0.0870
   1314 C          15.1892    5.0389   33.2385 C.3    28  UNL28       0.1805
   1315 H          14.9868    5.3981   34.2507 H      28  UNL28       0.0806
   1316 CL          9.7320    5.5821   35.7506 Cl     28  UNL28      -0.0870
   1317 CL         12.2691    6.8258   35.0431 Cl     28  UNL28      -0.0870
   1318 CL         12.1448    3.9616   35.5585 Cl     28  UNL28      -0.0870
   1319 C          11.2769    5.3641   34.9111 C.3    28  UNL28       0.1805
   1320 H          11.0708    5.1827   33.8532 H      28  UNL28       0.0806
   1321 CL         16.4849    9.1992   -0.2052 Cl     28  UNL28      -0.0870
   1322 CL         15.8271    6.3617   -0.2205 Cl     28  UNL28      -0.0870
   1323 CL         13.7099    8.3490   -0.4517 Cl     28  UNL28      -0.0870
   1324 C          15.3928    7.9608   -0.8474 C.3    28  UNL28       0.1805
   1325 H          15.4949    7.9431   -1.9355 H      28  UNL28       0.0806
   1326 CL         13.4216    9.5734    2.8686 Cl     28  UNL28      -0.0870
   1327 CL         15.4780    7.5266    2.6118 Cl     28  UNL28      -0.0870
   1328 CL         13.2973    7.1702    4.5097 Cl     28  UNL28      -0.0870
   1329 C          13.7640    7.8364    2.9357 C.3    28  UNL28       0.1805
   1330 H          13.1725    7.3392    2.1627 H      28  UNL28       0.0806
   1331 CL         16.4484    8.6864    5.2093 Cl     28  UNL28      -0.0870
   1332 CL         16.1935   11.4838    5.9799 Cl     28  UNL28      -0.0870
   1333 CL         13.9274    9.6782    6.2794 Cl     28  UNL28      -0.0870
   1334 C          15.6923    9.8229    6.3387 C.3    28  UNL28       0.1805
   1335 H          16.0239    9.5744    7.3501 H      28  UNL28       0.0806
   1336 CL         13.1403    8.5959    9.2041 Cl     28  UNL28      -0.0870
   1337 CL         13.2282   11.2247   10.4553 Cl     28  UNL28      -0.0870
   1338 CL         15.6157    9.5570   10.4010 Cl     28  UNL28      -0.0870
   1339 C          14.1421   10.0196    9.5328 C.3    28  UNL28       0.1805
   1340 H          14.4313   10.4646    8.5773 H      28  UNL28       0.0806
   1341 CL         13.0281    9.6641   13.6892 Cl     28  UNL28      -0.0870
   1342 CL         12.4849    7.0529   14.8599 Cl     28  UNL28      -0.0870
   1343 CL         15.1053    7.6224   13.7222 Cl     28  UNL28      -0.0870
   1344 C          13.7142    8.2989   14.5861 C.3    28  UNL28       0.1805
   1345 H          14.0569    8.6634   15.5579 H      28  UNL28       0.0806
   1346 CL         13.3303    8.9239   17.8863 Cl     28  UNL28      -0.0870
   1347 CL         11.7875   11.2982   18.5693 Cl     28  UNL28      -0.0870
   1348 CL         14.6940   11.4382   18.4365 Cl     28  UNL28      -0.0870
   1349 C          13.2393   10.6885   17.7574 C.3    28  UNL28       0.1805
   1350 H          13.1783   10.9532   16.6987 H      28  UNL28       0.0806
   1351 CL         13.8645    9.7203   20.9029 Cl     28  UNL28      -0.0870
   1352 CL         15.7157    7.7303   21.9503 Cl     28  UNL28      -0.0870
   1353 CL         13.0127    6.9503   21.1951 Cl     28  UNL28      -0.0870
   1354 C          14.3738    8.0250   20.8318 C.3    28  UNL28       0.1805
   1355 H          14.7188    7.8119   19.8168 H      28  UNL28       0.0806
   1356 CL         12.6601    8.8941   25.8312 Cl     28  UNL28      -0.0870
   1357 CL         14.4171   10.3323   24.0068 Cl     28  UNL28      -0.0870
   1358 CL         15.2083    7.7261   25.0395 Cl     28  UNL28      -0.0870
   1359 C          13.8471    8.7371   24.5254 C.3    28  UNL28       0.1805
   1360 H          13.3607    8.2524   23.6750 H      28  UNL28       0.0806
   1361 CL         13.0963    7.8490   28.9115 Cl     28  UNL28      -0.0870
   1362 CL         15.4788    9.1580   27.8654 Cl     28  UNL28      -0.0870
   1363 CL         15.7332    7.0348   29.8433 Cl     28  UNL28      -0.0870
   1364 C          14.7973    7.6363   28.4643 C.3    28  UNL28       0.1805
   1365 H          14.8520    6.8957   27.6623 H      28  UNL28       0.0806
   1366 CL         13.3928    8.7115   32.5970 Cl     28  UNL28      -0.0870
   1367 CL         13.6738   11.6016   32.8254 Cl     28  UNL28      -0.0870
   1368 CL         15.8843    9.9991   31.8104 Cl     28  UNL28      -0.0870
   1369 C          14.1221   10.1641   31.8921 C.3    28  UNL28       0.1805
   1370 H          13.7402   10.2815   30.8747 H      28  UNL28       0.0806
   1371 CL         13.0116   10.1724   35.7434 Cl     28  UNL28      -0.0870
   1372 CL         15.6603    9.1069   35.1660 Cl     28  UNL28      -0.0870
   1373 CL         15.3192   11.1096   37.2536 Cl     28  UNL28      -0.0870
   1374 C          14.5827    9.7250   36.4291 C.3    28  UNL28       0.1805
   1375 H          14.4237    8.9318   37.1641 H      28  UNL28       0.0806
   1376 CL         14.4218   14.2948    0.2151 Cl     28  UNL28      -0.0870
   1377 CL         16.3346   12.5836   -1.1622 Cl     28  UNL28      -0.0870
   1378 CL         14.0978   11.4009    0.2810 Cl     28  UNL28      -0.0870
   1379 C          14.6405   12.7841   -0.6841 C.3    28  UNL28       0.1805
   1380 H          14.0308   12.8318   -1.5900 H      28  UNL28       0.0806
   1381 CL         17.1655   13.7668    3.5648 Cl     28  UNL28      -0.0870
   1382 CL         16.6481   10.9788    2.8988 Cl     28  UNL28      -0.0870
   1383 CL         14.4430   12.8772    3.0350 Cl     28  UNL28      -0.0870
   1384 C          16.1527   12.6576    2.6253 C.3    28  UNL28       0.1805
   1385 H          16.2843   12.8867    1.5647 H      28  UNL28       0.0806
   1386 CL         14.5283   13.1476    8.1924 Cl     28  UNL28      -0.0870
   1387 CL         14.4108   15.1898    6.1187 Cl     28  UNL28      -0.0870
   1388 CL         12.7786   12.7878    5.8916 Cl     28  UNL28      -0.0870
   1389 C          13.4929   13.9633    7.0085 C.3    28  UNL28       0.1805
   1390 H          12.6830   14.4627    7.5464 H      28  UNL28       0.0806
   1391 CL         16.4034   12.5263   12.3024 Cl     28  UNL28      -0.0870
   1392 CL         15.1817   11.7036   14.8153 Cl     28  UNL28      -0.0870
   1393 CL         13.5359   12.8465   12.7011 Cl     28  UNL28      -0.0870
   1394 C          14.9544   11.8490   13.0643 C.3    28  UNL28       0.1805
   1395 H          14.7860   10.8496   12.6552 H      28  UNL28       0.0806
   1396 CL         16.2184   13.6425   16.8645 Cl     28  UNL28      -0.0870
   1397 CL         14.3278   14.5283   14.8334 Cl     28  UNL28      -0.0870
   1398 CL         16.6590   16.1575   15.4629 Cl     28  UNL28      -0.0870
   1399 C          16.0284   14.5071   15.3299 C.3    28  UNL28       0.1805
   1400 H          16.6036   13.9798   14.5646 H      28  UNL28       0.0806
   1401 CL         14.9547   16.0786   17.9397 Cl     28  UNL28      -0.0870
   1402 CL         12.3356   16.7782   16.8743 Cl     28  UNL28      -0.0870
   1403 CL         12.7428   14.1962   18.1598 Cl     28  UNL28      -0.0870
   1404 C          13.2039   15.9069   18.1493 C.3    28  UNL28       0.1805
   1405 H          12.9285   16.3432   19.1129 H      28  UNL28       0.0806
   1406 CL         16.5177   15.0622   22.0546 Cl     28  UNL28      -0.0870
   1407 CL         14.7539   12.7604   21.7809 Cl     28  UNL28      -0.0870
   1408 CL         13.7270   15.4460   21.3141 Cl     28  UNL28      -0.0870
   1409 C          15.1369   14.3816   21.1778 C.3    28  UNL28       0.1805
   1410 H          15.4061   14.3010   20.1215 H      28  UNL28       0.0806
   1411 CL         15.3789   13.7716   25.0373 Cl     28  UNL28      -0.0870
   1412 CL         12.9999   12.4766   26.1086 Cl     28  UNL28      -0.0870
   1413 CL         12.9497   15.3187   25.4724 Cl     28  UNL28      -0.0870
   1414 C          13.6077   13.7366   25.0215 C.3    28  UNL28       0.1805
   1415 H          13.2774   13.5035   24.0060 H      28  UNL28       0.0806
   1416 CL         17.1584   13.9506   29.7004 Cl     28  UNL28      -0.0870
   1417 CL         14.6569   12.4887   29.4011 Cl     28  UNL28      -0.0870
   1418 CL         14.9561   15.1251   28.1990 Cl     28  UNL28      -0.0870
   1419 C          15.7836   13.6197   28.6331 C.3    28  UNL28       0.1805
   1420 H          16.1625   13.1591   27.7171 H      28  UNL28       0.0806
   1421 CL         12.5395   15.9301   33.0221 Cl     28  UNL28      -0.0870
   1422 CL         15.0302   14.9328   31.8880 Cl     28  UNL28      -0.0870
   1423 CL         12.4772   13.9618   30.8759 Cl     28  UNL28      -0.0870
   1424 C          13.3421   15.3525   31.5520 C.3    28  UNL28       0.1805
   1425 H          13.3284   16.1582   30.8136 H      28  UNL28       0.0806
   1426 CL         15.5295   13.2302   35.0498 Cl     28  UNL28      -0.0870
   1427 CL         14.3120   14.8953   37.1064 Cl     28  UNL28      -0.0870
   1428 CL         15.4794   16.1258   34.7383 Cl     28  UNL28      -0.0870
   1429 C          14.6158   14.7138   35.3705 C.3    28  UNL28       0.1805
   1430 H          13.6528   14.6420   34.8584 H      28  UNL28       0.0806
   1431 CL         15.7597   18.9822    0.0995 Cl     28  UNL28      -0.0870
   1432 CL         16.1032   16.4944    1.5750 Cl     28  UNL28      -0.0870
   1433 CL         13.5146   17.1530    0.4128 Cl     28  UNL28      -0.0870
   1434 C          15.2716   17.2837    0.2244 C.3    28  UNL28       0.1805
   1435 H          15.5571   16.7750   -0.6999 H      28  UNL28       0.0806
   1436 CL         13.6924   19.6529    2.9436 Cl     28  UNL28      -0.0870
   1437 CL         14.6196   18.5312    5.4668 Cl     28  UNL28      -0.0870
   1438 CL         13.4968   16.7864    3.4223 Cl     28  UNL28      -0.0870
   1439 C          14.4443   18.2525    3.7260 C.3    28  UNL28       0.1805
   1440 H          15.4403   18.1131    3.2980 H      28  UNL28       0.0806
   1441 CL         12.3365   16.4161    9.1923 Cl     28  UNL28      -0.0870
   1442 CL         11.9592   17.0248    6.3690 Cl     28  UNL28      -0.0870
   1443 CL         12.2284   19.1873    8.3019 Cl     28  UNL28      -0.0870
   1444 C          12.7272   17.5403    7.8800 C.3    28  UNL28       0.1805
   1445 H          13.8104   17.5358    7.7343 H      28  UNL28       0.0806
   1446 CL         13.5240   17.6111   11.8633 Cl     28  UNL28      -0.0870
   1447 CL         14.8407   15.1455   11.0440 Cl     28  UNL28      -0.0870
   1448 CL         15.5526   17.6683    9.7738 Cl     28  UNL28      -0.0870
   1449 C          15.0335   16.8908   11.2789 C.3    28  UNL28       0.1805
   1450 H          15.8068   17.0529   12.0342 H      28  UNL28       0.0806
   1451 CL         16.4985   19.3298   13.7519 Cl     28  UNL28      -0.0870
   1452 CL         15.1909   18.4962   16.2176 Cl     28  UNL28      -0.0870
   1453 CL         13.6203   19.6572   14.0565 Cl     28  UNL28      -0.0870
   1454 C          15.0228   18.6528   14.4609 C.3    28  UNL28       0.1805
   1455 H          14.8650   17.6564   14.0403 H      28  UNL28       0.0806
   1456 CL         11.8344   18.8180   19.0684 Cl     28  UNL28      -0.0870
   1457 CL         14.6940   19.3552   18.9340 Cl     28  UNL28      -0.0870
   1458 CL         12.8953   20.5431   16.9749 Cl     28  UNL28      -0.0870
   1459 C          13.0736   20.0155   18.6569 C.3    28  UNL28       0.1805
   1460 H          12.9407   20.8848   19.3059 H      28  UNL28       0.0806
   1461 CL         16.6411   19.5781   22.7726 Cl     28  UNL28      -0.0870
   1462 CL         14.0154   18.7712   21.8036 Cl     28  UNL28      -0.0870
   1463 CL         16.4177   17.5871   20.6583 Cl     28  UNL28      -0.0870
   1464 C          15.6744   18.2407   22.1278 C.3    28  UNL28       0.1805
   1465 H          15.6412   17.4472   22.8787 H      28  UNL28       0.0806
   1466 CL         11.3907   17.4445   24.1125 Cl     28  UNL28      -0.0870
   1467 CL         11.9018   18.7790   26.6506 Cl     28  UNL28      -0.0870
   1468 CL         14.0743   18.3789   24.7519 Cl     28  UNL28      -0.0870
   1469 C          12.3403   18.6928   24.9363 C.3    28  UNL28       0.1805
   1470 H          12.1144   19.6574   24.4745 H      28  UNL28       0.0806
   1471 CL         16.5793   17.9640   27.1601 Cl     28  UNL28      -0.0870
   1472 CL         16.6919   19.6539   29.5298 Cl     28  UNL28      -0.0870
   1473 CL         14.2129   18.2961   28.8256 Cl     28  UNL28      -0.0870
   1474 C          15.9819   18.1984   28.8114 C.3    28  UNL28       0.1805
   1475 H          16.2835   17.3363   29.4118 H      28  UNL28       0.0806
   1476 CL         12.0175   19.1295   31.0745 Cl     28  UNL28      -0.0870
   1477 CL         14.6992   18.4909   32.0151 Cl     28  UNL28      -0.0870
   1478 CL         13.3070   20.8266   33.0596 Cl     28  UNL28      -0.0870
   1479 C          13.1240   19.1704   32.4575 C.3    28  UNL28       0.1805
   1480 H          12.6978   18.5589   33.2570 H      28  UNL28       0.0806
   1481 CL         15.3774   18.1198   37.1672 Cl     28  UNL28      -0.0870
   1482 CL         16.4020   20.8450   37.2535 Cl     28  UNL28      -0.0870
   1483 CL         15.7531   19.6133   34.6949 Cl     28  UNL28      -0.0870
   1484 C          15.3232   19.7207   36.4104 C.3    28  UNL28       0.1805
   1485 H          14.3018   20.1023   36.4857 H      28  UNL28       0.0806
   1486 CL         14.1129   21.6864   -0.0536 Cl     28  UNL28      -0.0870
   1487 CL         15.5355   24.0715   -0.9320 Cl     28  UNL28      -0.0870
   1488 CL         17.0240   21.7535    0.0146 Cl     28  UNL28      -0.0870
   1489 C          15.5742   22.3025   -0.8433 C.3    28  UNL28       0.1805
   1490 H          15.6071   21.9077   -1.8619 H      28  UNL28       0.0806
   1491 CL         12.9093   25.4864    3.0108 Cl     28  UNL28      -0.0870
   1492 CL         15.1761   23.7211    2.5313 Cl     28  UNL28      -0.0870
   1493 CL         12.4777   22.6295    2.6416 Cl     28  UNL28      -0.0870
   1494 C          13.4667   24.0249    2.1788 C.3    28  UNL28       0.1805
   1495 H          13.3598   24.1802    1.1022 H      28  UNL28       0.0806
   1496 CL         13.3363   23.3461    5.4822 Cl     28  UNL28      -0.0870
   1497 CL         16.2405   23.1575    5.6027 Cl     28  UNL28      -0.0870
   1498 CL         14.5948   21.0541    6.7655 Cl     28  UNL28      -0.0870
   1499 C          14.7265   22.2480    5.4630 C.3    28  UNL28       0.1805
   1500 H          14.7315   21.7162    4.5082 H      28  UNL28       0.0806
   1501 CL         13.0184   23.1574   10.7011 Cl     28  UNL28      -0.0870
   1502 CL         15.7944   22.4872   10.1274 Cl     28  UNL28      -0.0870
   1503 CL         14.0010   20.4628   11.2092 Cl     28  UNL28      -0.0870
   1504 C          14.1282   21.8861   10.1617 C.3    28  UNL28       0.1805
   1505 H          13.8475   21.5924    9.1470 H      28  UNL28       0.0806
   1506 CL         16.1287   22.1773   13.3881 Cl     28  UNL28      -0.0870
   1507 CL         13.2962   22.7387   13.7698 Cl     28  UNL28      -0.0870
   1508 CL         15.2713   24.8271   14.2409 Cl     28  UNL28      -0.0870
   1509 C          14.8583   23.4061   13.2667 C.3    28  UNL28       0.1805
   1510 H          14.7791   23.7167   12.2217 H      28  UNL28       0.0806
   1511 CL         16.9595   23.4097   16.3209 Cl     28  UNL28      -0.0870
   1512 CL         15.5584   22.1737   18.5555 Cl     28  UNL28      -0.0870
   1513 CL         14.1986   24.1409   16.8924 Cl     28  UNL28      -0.0870
   1514 C          15.3947   22.8340   16.9197 C.3    28  UNL28       0.1805
   1515 H          15.0466   22.0354   16.2596 H      28  UNL28       0.0806
   1516 CL         15.9529   22.0189   21.4098 Cl     28  UNL28      -0.0870
   1517 CL         13.9290   21.6540   23.4726 Cl     28  UNL28      -0.0870
   1518 CL         13.4352   23.4754   21.2537 Cl     28  UNL28      -0.0870
   1519 C          14.2154   21.9647   21.7521 C.3    28  UNL28       0.1805
   1520 H          13.7771   21.1452   21.1769 H      28  UNL28       0.0806
   1521 CL         16.4469   23.3641   24.8090 Cl     28  UNL28      -0.0870
   1522 CL         15.8371   25.8818   26.1409 Cl     28  UNL28      -0.0870
   1523 CL         14.3471   25.0924   23.7657 Cl     28  UNL28      -0.0870
   1524 C          15.1699   24.5190   25.2264 C.3    28  UNL28       0.1805
   1525 H          14.4367   24.0083   25.8560 H      28  UNL28       0.0806
   1526 CL         15.5103   23.3923   28.0368 Cl     28  UNL28      -0.0870
   1527 CL         12.9998   22.5837   29.2727 Cl     28  UNL28      -0.0870
   1528 CL         14.1625   20.9689   27.1453 Cl     28  UNL28      -0.0870
   1529 C          14.5061   22.0188   28.5306 C.3    28  UNL28       0.1805
   1530 H          15.0589   21.4381   29.2734 H      28  UNL28       0.0806
   1531 CL         15.3456   22.8406   31.4580 Cl     28  UNL28      -0.0870
   1532 CL         15.0573   24.9892   33.4033 Cl     28  UNL28      -0.0870
   1533 CL         13.6572   25.1358   30.8533 Cl     28  UNL28      -0.0870
   1534 C          14.2494   24.0594   32.1300 C.3    28  UNL28       0.1805
   1535 H          13.3920   23.5448   32.5711 H      28  UNL28       0.0806
   1536 CL         13.3017   22.4712   37.2543 Cl     28  UNL28      -0.0870
   1537 CL         13.3029   25.0471   35.8944 Cl     28  UNL28      -0.0870
   1538 CL         15.7616   24.0203   37.0714 Cl     28  UNL28      -0.0870
   1539 C          14.2460   23.5925   36.2594 C.3    28  UNL28       0.1805
   1540 H          14.4894   23.0948   35.3172 H      28  UNL28       0.0806
   1541 CL         14.9169   26.5292    0.6889 Cl     28  UNL28      -0.0870
   1542 CL         13.8163   28.9844   -0.4268 Cl     28  UNL28      -0.0870
   1543 CL         16.4377   29.0086    0.8430 Cl     28  UNL28      -0.0870
   1544 C          15.2954   28.0582   -0.1220 C.3    28  UNL28       0.1805
   1545 H          15.7632   27.8309   -1.0833 H      28  UNL28       0.0806
   1546 CL         14.3692   30.3838    2.7608 Cl     28  UNL28      -0.0870
   1547 CL         15.5003   27.7894    3.4490 Cl     28  UNL28      -0.0870
   1548 CL         13.1129   28.7464    4.8162 Cl     28  UNL28      -0.0870
   1549 C          14.0085   28.7312    3.2875 C.3    28  UNL28       0.1805
   1550 H          13.3828   28.2569    2.5271 H      28  UNL28       0.0806
   1551 CL         14.9317   26.0974    5.8731 Cl     28  UNL28      -0.0870
   1552 CL         13.4281   26.8996    8.2353 Cl     28  UNL28      -0.0870
   1553 CL         14.6644   24.2645    8.1210 Cl     28  UNL28      -0.0870
   1554 C          14.8066   25.9625    7.6352 C.3    28  UNL28       0.1805
   1555 H          15.7190   26.3713    8.0769 H      28  UNL28       0.0806
   1556 CL         16.0252   25.8324   10.8190 Cl     28  UNL28      -0.0870
   1557 CL         14.9698   28.5469   10.8604 Cl     28  UNL28      -0.0870
   1558 CL         13.1839   26.2834   11.2749 Cl     28  UNL28      -0.0870
   1559 C          14.8188   26.9153   11.5338 C.3    28  UNL28       0.1805
   1560 H          15.0001   26.9692   12.6103 H      28  UNL28       0.0806
   1561 CL         16.2113   29.2826   13.7532 Cl     28  UNL28      -0.0870
   1562 CL         17.2737   27.1477   15.4259 Cl     28  UNL28      -0.0870
   1563 CL         15.9948   29.4596   16.6525 Cl     28  UNL28      -0.0870
   1564 C          16.0013   28.3687   15.2563 C.3    28  UNL28       0.1805
   1565 H          15.0365   27.8567   15.2155 H      28  UNL28       0.0806
   1566 CL         15.9728   28.1897   19.3958 Cl     28  UNL28      -0.0870
   1567 CL         15.1622   25.4412   19.9179 Cl     28  UNL28      -0.0870
   1568 CL         13.3794   27.2363   18.4744 Cl     28  UNL28      -0.0870
   1569 C          15.0681   26.7963   18.7806 C.3    28  UNL28       0.1805
   1570 H          15.5189   26.4838   17.8352 H      28  UNL28       0.0806
   1571 CL         13.8909   27.6969   21.8841 Cl     28  UNL28      -0.0870
   1572 CL         12.5596   30.2101   22.5129 Cl     28  UNL28      -0.0870
   1573 CL         15.4035   30.1861   21.8831 Cl     28  UNL28      -0.0870
   1574 C          13.8322   29.4364   21.5536 C.3    28  UNL28       0.1805
   1575 H          13.5991   29.5776   20.4951 H      28  UNL28       0.0806
   1576 CL         13.4757   28.2300   25.3044 Cl     28  UNL28      -0.0870
   1577 CL         15.5979   29.7949   26.5420 Cl     28  UNL28      -0.0870
   1578 CL         16.1476   28.2346   24.1444 Cl     28  UNL28      -0.0870
   1579 C          14.9356   29.1909   25.0139 C.3    28  UNL28       0.1805
   1580 H          14.6647   30.0489   24.3933 H      28  UNL28       0.0806
   1581 CL         15.3618   29.9619   29.8123 Cl     28  UNL28      -0.0870
   1582 CL         13.0000   30.1583   28.1189 Cl     28  UNL28      -0.0870
   1583 CL         14.1088   27.5458   28.7748 Cl     28  UNL28      -0.0870
   1584 C          13.8309   29.1972   29.3536 C.3    28  UNL28       0.1805
   1585 H          13.1921   29.1483   30.2391 H      28  UNL28       0.0806
   1586 CL         15.7477   28.1904   33.5462 Cl     28  UNL28      -0.0870
   1587 CL         13.0343   27.1331   33.4827 Cl     28  UNL28      -0.0870
   1588 CL         13.5382   29.8983   32.7182 Cl     28  UNL28      -0.0870
   1589 C          14.1814   28.2473   32.7202 C.3    28  UNL28       0.1805
   1590 H          14.3278   27.9340   31.6834 H      28  UNL28       0.0806
   1591 CL         13.5749   28.9196   36.3134 Cl     28  UNL28      -0.0870
   1592 CL         11.0556   29.5824   35.0103 Cl     28  UNL28      -0.0870
   1593 CL         11.1018   27.6610   37.1991 Cl     28  UNL28      -0.0870
   1594 C          11.8309   29.1349   36.5391 C.3    28  UNL28       0.1805
   1595 H          11.6743   29.9462   37.2546 H      28  UNL28       0.0806
   1596 CL         16.0760   32.9831    1.1617 Cl     28  UNL28      -0.0870
   1597 CL         14.6227   35.2171   -0.0136 Cl     28  UNL28      -0.0870
   1598 CL         13.3188   32.6303    0.2912 Cl     28  UNL28      -0.0870
   1599 C          14.4935   33.7602    0.9860 C.3    28  UNL28       0.1805
   1600 H          14.1426   34.0539    1.9785 H      28  UNL28       0.0806
   1601 CL         13.6179   35.1950    5.6999 Cl     28  UNL28      -0.0870
   1602 CL         15.6237   35.4464    3.6028 Cl     28  UNL28      -0.0870
   1603 CL         15.9071   33.3946    5.6509 Cl     28  UNL28      -0.0870
   1604 C          14.7622   34.3220    4.6668 C.3    28  UNL28       0.1805
   1605 H          14.1987   33.6225    4.0441 H      28  UNL28       0.0806
   1606 CL         14.2174   31.4799    7.0986 Cl     28  UNL28      -0.0870
   1607 CL         15.6483   28.9618    7.4078 Cl     28  UNL28      -0.0870
   1608 CL         16.8343   31.4395    8.3769 Cl     28  UNL28      -0.0870
   1609 C          15.3234   30.5496    8.1233 C.3    28  UNL28       0.1805
   1610 H          14.8464   30.3979    9.0949 H      28  UNL28       0.0806
   1611 CL         15.8792   35.3124    9.9635 Cl     28  UNL28      -0.0870
   1612 CL         14.3084   32.8610    9.8756 Cl     28  UNL28      -0.0870
   1613 CL         12.9882   35.4463    9.6347 Cl     28  UNL28      -0.0870
   1614 C          14.4540   34.5199    9.2710 C.3    28  UNL28       0.1805
   1615 H          14.5757   34.4809    8.1855 H      28  UNL28       0.0806
   1616 CL         16.0365   35.3933   13.0712 Cl     28  UNL28      -0.0870
   1617 CL         14.4634   32.9470   13.2312 Cl     28  UNL28      -0.0870
   1618 CL         13.3794   35.4459   14.2633 Cl     28  UNL28      -0.0870
   1619 C          14.4046   34.7053   13.0224 C.3    28  UNL28       0.1805
   1620 H          13.9696   34.9211   12.0432 H      28  UNL28       0.0806
   1621 CL         15.1981   32.5547   16.5748 Cl     28  UNL28      -0.0870
   1622 CL         15.3861   35.4460   16.8736 Cl     28  UNL28      -0.0870
   1623 CL         17.8026   33.8197   16.8913 Cl     28  UNL28      -0.0870
   1624 C          16.1696   33.9947   16.2266 C.3    28  UNL28       0.1805
   1625 H          16.2495   34.1015   15.1418 H      28  UNL28       0.0806
   1626 CL         16.0863   34.4265   19.9795 Cl     28  UNL28      -0.0870
   1627 CL         14.0003   32.4072   20.2150 Cl     28  UNL28      -0.0870
   1628 CL         13.3006   35.2346   20.2458 Cl     28  UNL28      -0.0870
   1629 C          14.4072   34.0150   19.5921 C.3    28  UNL28       0.1805
   1630 H          14.2990   34.0001   18.5046 H      28  UNL28       0.0806
   1631 CL         16.0939   35.4453   23.8737 Cl     28  UNL28      -0.0870
   1632 CL         14.7156   32.8805   23.9539 Cl     28  UNL28      -0.0870
   1633 CL         13.1839   35.3527   23.7896 Cl     28  UNL28      -0.0870
   1634 C          14.6815   34.5329   23.3158 C.3    28  UNL28       0.1805
   1635 H          14.7147   34.4811   22.2246 H      28  UNL28       0.0806
   1636 CL         15.8283   35.4458   27.3885 Cl     28  UNL28      -0.0870
   1637 CL         14.3762   32.9234   27.5024 Cl     28  UNL28      -0.0870
   1638 CL         12.9266   35.4461   27.6415 Cl     28  UNL28      -0.0870
   1639 C          14.3287   34.6078   26.9554 C.3    28  UNL28       0.1805
   1640 H          14.2338   34.6134   25.8666 H      28  UNL28       0.0806
   1641 CL         15.7660   35.2933   31.4055 Cl     28  UNL28      -0.0870
   1642 CL         14.1196   32.8981   31.5971 Cl     28  UNL28      -0.0870
   1643 CL         12.9062   35.4456   30.8739 Cl     28  UNL28      -0.0870
   1644 C          14.3583   34.4376   30.7535 C.3    28  UNL28       0.1805
   1645 H          14.5434   34.2260   29.6973 H      28  UNL28       0.0806
   1646 CL         14.3314   35.1250   37.2237 Cl     28  UNL28      -0.0870
   1647 CL         13.3706   34.3783   34.5773 Cl     28  UNL28      -0.0870
   1648 CL         13.8909   32.3204   36.5721 Cl     28  UNL28      -0.0870
   1649 C          13.3381   33.9823   36.3037 C.3    28  UNL28       0.1805
   1650 H          12.3065   34.0626   36.6557 H      28  UNL28       0.0806
   1651 CL         19.9996    0.7301    4.6169 Cl     28  UNL28      -0.0870
   1652 CL         17.4983   -0.6802    5.1054 Cl     28  UNL28      -0.0870
   1653 CL         17.6402    2.2053    5.4777 Cl     28  UNL28      -0.0870
   1654 C          18.2326    0.8275    4.5342 C.3    28  UNL28       0.1805
   1655 H          17.9449    0.9764    3.4903 H      28  UNL28       0.0806
   1656 CL         20.7314    0.1851    8.0712 Cl     28  UNL28      -0.0870
   1657 CL         18.1980   -0.5343    9.3157 Cl     28  UNL28      -0.0870
   1658 CL         18.6735    2.2094    8.4607 Cl     28  UNL28      -0.0870
   1659 C          18.9886    0.5005    8.1145 C.3    28  UNL28       0.1805
   1660 H          18.5722    0.2663    7.1314 H      28  UNL28       0.0806
   1661 CL         18.2936    1.7401   14.2446 Cl     28  UNL28      -0.0870
   1662 CL         20.8934    2.1026   15.5072 Cl     28  UNL28      -0.0870
   1663 CL         19.8550   -0.5812   15.0555 Cl     28  UNL28      -0.0870
   1664 C          19.9254    1.0769   14.4350 C.3    28  UNL28       0.1805
   1665 H          20.4050    1.0566   13.4530 H      28  UNL28       0.0806
   1666 CL         19.3708    0.4407   18.3589 Cl     28  UNL28      -0.0870
   1667 CL         16.5354   -0.2253   18.3264 Cl     28  UNL28      -0.0870
   1668 CL         17.4052    2.4740   17.6614 Cl     28  UNL28      -0.0870
   1669 C          17.8107    0.7511   17.5789 C.3    28  UNL28       0.1805
   1670 H          17.8897    0.4665   16.5266 H      28  UNL28       0.0806
   1671 CL         17.3760    2.1568   22.0435 Cl     28  UNL28      -0.0870
   1672 CL         20.0654    1.1786   21.5009 Cl     28  UNL28      -0.0870
   1673 CL         18.0110   -0.6572   22.4463 Cl     28  UNL28      -0.0870
   1674 C          18.3385    0.7845   21.4698 C.3    28  UNL28       0.1805
   1675 H          18.0527    0.5722   20.4364 H      28  UNL28       0.0806
   1676 CL         17.5975    1.8187   29.4304 Cl     28  UNL28      -0.0870
   1677 CL         20.0093    1.4361   27.8427 Cl     28  UNL28      -0.0870
   1678 CL         18.5838   -0.8712   28.9052 Cl     28  UNL28      -0.0870
   1679 C          18.4215    0.7719   28.2625 C.3    28  UNL28       0.1805
   1680 H          17.8160    0.7274   27.3536 H      28  UNL28       0.0806
   1681 CL         20.0428   -1.3067   34.9499 Cl     28  UNL28      -0.0870
   1682 CL         17.5413    0.1595   34.6728 Cl     28  UNL28      -0.0870
   1683 CL         19.5350    1.0333   36.6084 Cl     28  UNL28      -0.0870
   1684 C          19.2733    0.2874   35.0227 C.3    28  UNL28       0.1805
   1685 H          19.7315    0.9255   34.2627 H      28  UNL28       0.0806
   1686 CL         19.2396    7.0087   -0.4619 Cl     28  UNL28      -0.0870
   1687 CL         20.5638    4.4532   -0.9094 Cl     28  UNL28      -0.0870
   1688 CL         18.3202    4.6269    0.9402 Cl     28  UNL28      -0.0870
   1689 C          19.0219    5.2533   -0.5613 C.3    28  UNL28       0.1805
   1690 H          18.3303    5.0383   -1.3799 H      28  UNL28       0.0806
   1691 CL         18.1676    8.0871   13.4724 Cl     28  UNL28      -0.0870
   1692 CL         20.8034    6.8488   13.4144 Cl     28  UNL28      -0.0870
   1693 CL         18.4223    5.1937   13.6902 Cl     28  UNL28      -0.0870
   1694 C          19.0980    6.6652   12.9709 C.3    28  UNL28       0.1805
   1695 H          19.0328    6.5777   11.8834 H      28  UNL28       0.0806
   1696 CL         18.8594    4.3096   28.2785 Cl     28  UNL28      -0.0870
   1697 CL         17.7857    6.7051   27.0163 Cl     28  UNL28      -0.0870
   1698 CL         20.6532    6.4547   27.4631 Cl     28  UNL28      -0.0870
   1699 C          19.1566    5.5849   27.0852 C.3    28  UNL28       0.1805
   1700 H          19.2688    5.1179   26.1034 H      28  UNL28       0.0806
   1701 CL         20.0250    4.1380   37.2548 Cl     28  UNL28      -0.0870
   1702 CL         20.3760    6.1322   35.1609 Cl     28  UNL28      -0.0870
   1703 CL         17.8869    4.6296   35.3388 Cl     28  UNL28      -0.0870
   1704 C          19.2176    5.3573   36.2547 C.3    28  UNL28       0.1805
   1705 H          18.8024    6.1233   36.9147 H      28  UNL28       0.0806
   1706 CL         20.1834   12.6569    7.3613 Cl     28  UNL28      -0.0870
   1707 CL         18.1200   11.1576    8.7680 Cl     28  UNL28      -0.0870
   1708 CL         20.7873   10.0282    8.4609 Cl     28  UNL28      -0.0870
   1709 C          19.8523   11.5175    8.6769 C.3    28  UNL28       0.1805
   1710 H          20.1572   11.9815    9.6185 H      28  UNL28       0.0806
   1711 CL         18.4873   12.4321   15.4325 Cl     28  UNL28      -0.0870
   1712 CL         20.1294   10.1096   14.8051 Cl     28  UNL28      -0.0870
   1713 CL         17.3441    9.7572   15.5814 Cl     28  UNL28      -0.0870
   1714 C          18.5002   10.8022   14.7383 C.3    28  UNL28       0.1805
   1715 H          18.1991   10.8726   13.6899 H      28  UNL28       0.0806
   1716 CL         20.0000   11.5988   18.4073 Cl     28  UNL28      -0.0870
   1717 CL         20.7175    8.8066   18.8234 Cl     28  UNL28      -0.0870
   1718 CL         17.9208    9.5620   18.5187 Cl     28  UNL28      -0.0870
   1719 C          19.5869    9.9174   18.0318 C.3    28  UNL28       0.1805
   1720 H          19.6666    9.7769   16.9508 H      28  UNL28       0.0806
   1721 CL         17.7247   10.6332   22.0551 Cl     28  UNL28      -0.0870
   1722 CL         20.4377   11.6918   21.9984 Cl     28  UNL28      -0.0870
   1723 CL         19.9989    8.8136   22.0904 Cl     28  UNL28      -0.0870
   1724 C          19.3821   10.3626   21.4908 C.3    28  UNL28       0.1805
   1725 H          19.3723   10.3291   20.3983 H      28  UNL28       0.0806
   1726 CL         17.6267   10.0478   25.2404 Cl     28  UNL28      -0.0870
   1727 CL         19.9989   11.6817   25.6731 Cl     28  UNL28      -0.0870
   1728 CL         20.2333    8.7816   25.5339 Cl     28  UNL28      -0.0870
   1729 C          19.3642   10.2033   24.9315 C.3    28  UNL28       0.1805
   1730 H          19.5170   10.2674   23.8511 H      28  UNL28       0.0806
   1731 CL         17.9480   11.2585   28.0861 Cl     28  UNL28      -0.0870
   1732 CL         20.5311    9.9165   27.9809 Cl     28  UNL28      -0.0870
   1733 CL         18.4321    8.9009   29.7267 Cl     28  UNL28      -0.0870
   1734 C          18.7846    9.6999   28.1851 C.3    28  UNL28       0.1805
   1735 H          18.4202    9.0620   27.3759 H      28  UNL28       0.0806
   1736 CL         20.7953   10.2840   35.4493 Cl     28  UNL28      -0.0870
   1737 CL         18.6266    8.9996   36.9093 Cl     28  UNL28      -0.0870
   1738 CL         18.1598   11.5217   35.5288 Cl     28  UNL28      -0.0870
   1739 C          19.0491    9.9895   35.5020 C.3    28  UNL28       0.1805
   1740 H          18.7652    9.4428   34.5992 H      28  UNL28       0.0806
   1741 CL         19.4504   15.8247    8.1472 Cl     28  UNL28      -0.0870
   1742 CL         17.5067   14.1821    6.7302 Cl     28  UNL28      -0.0870
   1743 CL         17.3160   14.4978    9.6196 Cl     28  UNL28      -0.0870
   1744 C          17.7649   15.2814    8.0952 C.3    28  UNL28       0.1805
   1745 H          17.1255   16.1571    7.9574 H      28  UNL28       0.0806
   1746 CL         20.5781   14.7243   18.3059 Cl     28  UNL28      -0.0870
   1747 CL         18.0100   13.6159   19.1185 Cl     28  UNL28      -0.0870
   1748 CL         18.2837   16.4811   18.6708 Cl     28  UNL28      -0.0870
   1749 C          18.8183   14.8699   18.1632 C.3    28  UNL28       0.1805
   1750 H          18.5458   14.7320   17.1137 H      28  UNL28       0.0806
   1751 CL         17.6977   16.1572   24.8268 Cl     28  UNL28      -0.0870
   1752 CL         20.3615   14.9807   24.8913 Cl     28  UNL28      -0.0870
   1753 CL         18.1419   13.6333   26.2114 Cl     28  UNL28      -0.0870
   1754 C          18.6226   14.6461   24.8394 C.3    28  UNL28       0.1805
   1755 H          18.4044   14.1018   23.9170 H      28  UNL28       0.0806
   1756 CL         19.9869   13.2497   37.2537 Cl     28  UNL28      -0.0870
   1757 CL         17.5455   14.8382   37.2537 Cl     28  UNL28      -0.0870
   1758 CL         20.1420   16.1583   37.2536 Cl     28  UNL28      -0.0870
   1759 C          19.2247   14.7486   36.6962 C.3    28  UNL28       0.1805
   1760 H          19.2247   14.7485   35.6032 H      28  UNL28       0.0806
   1761 CL         16.8843   20.4456    2.8739 Cl     28  UNL28      -0.0870
   1762 CL         19.7957   20.3621    2.8439 Cl     28  UNL28      -0.0870
   1763 CL         18.2695   17.8877    3.0253 Cl     28  UNL28      -0.0870
   1764 C          18.3098   19.5286    2.3581 C.3    28  UNL28       0.1805
   1765 H          18.2964   19.4569    1.2675 H      28  UNL28       0.0806
   1766 CL         20.3773   19.8468    6.0704 Cl     28  UNL28      -0.0870
   1767 CL         18.1219   18.0158    6.2825 Cl     28  UNL28      -0.0870
   1768 CL         17.8207   20.7977    7.0922 Cl     28  UNL28      -0.0870
   1769 C          18.6161   19.6870    5.9638 C.3    28  UNL28       0.1805
   1770 H          18.3078   19.9492    4.9485 H      28  UNL28       0.0806
   1771 CL         20.3337   18.6499    9.2170 Cl     28  UNL28      -0.0870
   1772 CL         18.2517   18.2699   11.2182 Cl     28  UNL28      -0.0870
   1773 CL         18.5837   20.8644    9.9365 Cl     28  UNL28      -0.0870
   1774 C          18.6994   19.1092    9.7237 C.3    28  UNL28       0.1805
   1775 H          17.9995   18.8111    8.9389 H      28  UNL28       0.0806
   1776 CL         20.6359   20.6509   17.0145 Cl     28  UNL28      -0.0870
   1777 CL         19.7006   17.9352   16.5302 Cl     28  UNL28      -0.0870
   1778 CL         17.7837   20.0622   17.0653 Cl     28  UNL28      -0.0870
   1779 C          19.3414   19.6578   16.3241 C.3    28  UNL28       0.1805
   1780 H          19.2785   19.8704   15.2538 H      28  UNL28       0.0806
   1781 CL         20.6742   20.9586   32.1280 Cl     28  UNL28      -0.0870
   1782 CL         19.5867   18.2885   32.5425 Cl     28  UNL28      -0.0870
   1783 CL         17.7911   20.5642   32.2560 Cl     28  UNL28      -0.0870
   1784 C          19.3372   19.8569   31.7573 C.3    28  UNL28       0.1805
   1785 H          19.3107   19.6999   30.6760 H      28  UNL28       0.0806
   1786 CL         18.5016   18.1087   35.5887 Cl     28  UNL28      -0.0870
   1787 CL         18.9994   20.9176   35.0002 Cl     28  UNL28      -0.0870
   1788 CL         20.3339   19.6429   37.2539 Cl     28  UNL28      -0.0870
   1789 C          19.7016   19.4117   35.6150 C.3    28  UNL28       0.1805
   1790 H          20.5317   19.1279   34.9630 H      28  UNL28       0.0806
   1791 CL         18.2499   23.6808    8.0535 Cl     28  UNL28      -0.0870
   1792 CL         18.6944   26.3772    9.0614 Cl     28  UNL28      -0.0870
   1793 CL         20.9346   24.8107    8.0551 Cl     28  UNL28      -0.0870
   1794 C          19.2068   25.1615    7.8789 C.3    28  UNL28       0.1805
   1795 H          19.0380   25.5638    6.8767 H      28  UNL28       0.0806
   1796 CL         21.0455   25.4194   18.3157 Cl     28  UNL28      -0.0870
   1797 CL         19.2038   23.1631   18.3552 Cl     28  UNL28      -0.0870
   1798 CL         18.1802   25.8825   18.5599 Cl     28  UNL28      -0.0870
   1799 C          19.4334   24.8471   17.8550 C.3    28  UNL28       0.1805
   1800 H          19.3488   24.8972   16.7664 H      28  UNL28       0.0806
   1801 CL         20.7425   23.6805   21.0095 Cl     28  UNL28      -0.0870
   1802 CL         19.6359   21.3879   22.4250 Cl     28  UNL28      -0.0870
   1803 CL         18.2304   23.9389   22.4609 Cl     28  UNL28      -0.0870
   1804 C          19.2561   22.8544   21.5065 C.3    28  UNL28       0.1805
   1805 H          18.7068   22.5645   20.6071 H      28  UNL28       0.0806
   1806 CL         18.2196   24.9332   29.4463 Cl     28  UNL28      -0.0870
   1807 CL         20.8276   24.0630   28.4843 Cl     28  UNL28      -0.0870
   1808 CL         18.8649   22.0943   29.3542 Cl     28  UNL28      -0.0870
   1809 C          19.1030   23.6680   28.5758 C.3    28  UNL28       0.1805
   1810 H          18.7086   23.6115   27.5580 H      28  UNL28       0.0806
   1811 CL         19.9588   26.0249   34.2324 Cl     28  UNL28      -0.0870
   1812 CL         20.7249   24.3484   31.9770 Cl     28  UNL28      -0.0870
   1813 CL         18.3028   23.7498   33.4803 Cl     28  UNL28      -0.0870
   1814 C          19.3686   25.0348   32.8870 C.3    28  UNL28       0.1805
   1815 H          18.7929   25.6761   32.2148 H      28  UNL28       0.0806
   1816 CL         18.2623   27.7814    5.9135 Cl     28  UNL28      -0.0870
   1817 CL         17.1804   30.2668    4.8476 Cl     28  UNL28      -0.0870
   1818 CL         19.9988   29.6293    4.4803 Cl     28  UNL28      -0.0870
   1819 C          18.3596   28.9678    4.6013 C.3    28  UNL28       0.1805
   1820 H          18.1227   28.4617    3.6619 H      28  UNL28       0.0806
   1821 CL         18.7440   29.6653   21.9175 Cl     28  UNL28      -0.0870
   1822 CL         20.7468   27.8639   20.8093 Cl     28  UNL28      -0.0870
   1823 CL         18.9488   26.9320   22.9031 Cl     28  UNL28      -0.0870
   1824 C          19.1154   27.9868   21.4892 C.3    28  UNL28       0.1805
   1825 H          18.4007   27.6595   20.7298 H      28  UNL28       0.0806
   1826 CL         17.6903   27.8059   27.9128 Cl     28  UNL28      -0.0870
   1827 CL         20.4958   27.3050   28.5151 Cl     28  UNL28      -0.0870
   1828 CL         19.5066   30.0400   28.3534 Cl     28  UNL28      -0.0870
   1829 C          19.1121   28.3727   28.8050 C.3    28  UNL28       0.1805
   1830 H          18.8790   28.3516   29.8727 H      28  UNL28       0.0806
   1831 CL         16.9471   29.4495   36.5882 Cl     28  UNL28      -0.0870
   1832 CL         19.8543   29.2739   36.6308 Cl     28  UNL28      -0.0870
   1833 CL         18.2441   26.9280   37.2544 Cl     28  UNL28      -0.0870
   1834 C          18.3478   28.4078   36.2856 C.3    28  UNL28       0.1805
   1835 H          18.3463   28.1280   35.2290 H      28  UNL28       0.0806
   1836 CL         18.2251   35.4461    5.5546 Cl     28  UNL28      -0.0870
   1837 CL         21.0181   34.7630    5.0894 Cl     28  UNL28      -0.0870
   1838 CL         18.9404   32.7654    4.6678 Cl     28  UNL28      -0.0870
   1839 C          19.3459   34.4876    4.5729 C.3    28  UNL28       0.1805
   1840 H          19.2505   34.8066    3.5319 H      28  UNL28       0.0806
   1841 CL         20.0071   32.7114   15.0313 Cl     28  UNL28      -0.0870
   1842 CL         17.7222   33.0784   13.2625 Cl     28  UNL28      -0.0870
   1843 CL         19.0992   35.3972   14.3633 Cl     28  UNL28      -0.0870
   1844 C          19.2846   33.7350   13.7787 C.3    28  UNL28       0.1805
   1845 H          19.9549   33.7468   12.9154 H      28  UNL28       0.0806
   1846 CL         18.9079   34.4077   25.5268 Cl     28  UNL28      -0.0870
   1847 CL         20.7902   32.1849   25.5183 Cl     28  UNL28      -0.0870
   1848 CL         17.9288   31.6697   25.6976 Cl     28  UNL28      -0.0870
   1849 C          19.1785   32.7304   25.0247 C.3    28  UNL28       0.1805
   1850 H          19.1185   32.6839   23.9344 H      28  UNL28       0.0806
   1851 CL         20.7744   33.0265   29.5543 Cl     28  UNL28      -0.0870
   1852 CL         17.8770   32.8013   29.7512 Cl     28  UNL28      -0.0870
   1853 CL         19.0793   35.2230   28.6675 Cl     28  UNL28      -0.0870
   1854 C          19.2259   33.4633   28.8125 C.3    28  UNL28       0.1805
   1855 H          19.1913   33.0314   27.8091 H      28  UNL28       0.0806
   1856 CL         17.3460   33.1327   33.0478 Cl     28  UNL28      -0.0870
   1857 CL         19.9821   34.3705   33.1043 Cl     28  UNL28      -0.0870
   1858 CL         19.6215   31.6644   34.1202 Cl     28  UNL28      -0.0870
   1859 C          19.0902   32.8512   32.9167 C.3    28  UNL28       0.1805
   1860 H          19.3000   32.4498   31.9220 H      28  UNL28       0.0806
   1861 CL         18.5408   35.4407   37.2538 Cl     28  UNL28      -0.0870
   1862 CL         20.9217   33.9370   36.5095 Cl     28  UNL28      -0.0870
   1863 CL         18.4785   32.5287   37.2391 Cl     28  UNL28      -0.0870
   1864 C          19.1510   33.9750   36.4676 C.3    28  UNL28       0.1805
   1865 H          18.8318   33.9872   35.4223 H      28  UNL28       0.0806
@<TRIPOS>BOND
     1     1     4    1
     2     2     4    1
     3     3     4    1
     4     4     5    1
     5     6     9    1
     6     7     9    1
     7     8     9    1
     8     9    10    1
     9    11    14    1
    10    12    14    1
    11    13    14    1
    12    14    15    1
    13    16    19    1
    14    17    19    1
    15    18    19    1
    16    19    20    1
    17    21    24    1
    18    22    24    1
    19    23    24    1
    20    24    25    1
    21    26    29    1
    22    27    29    1
    23    28    29    1
    24    29    30    1
    25    31    34    1
    26    32    34    1
    27    33    34    1
    28    34    35    1
    29    36    39    1
    30    37    39    1
    31    38    39    1
    32    39    40    1
    33    41    44    1
    34    42    44    1
    35    43    44    1
    36    44    45    1
    37    46    49    1
    38    47    49    1
    39    48    49    1
    40    49    50    1
    41    51    54    1
    42    52    54    1
    43    53    54    1
    44    54    55    1
    45    56    59    1
    46    57    59    1
    47    58    59    1
    48    59    60    1
    49    61    64    1
    50    62    64    1
    51    63    64    1
    52    64    65    1
    53    66    69    1
    54    67    69    1
    55    68    69    1
    56    69    70    1
    57    71    74    1
    58    72    74    1
    59    73    74    1
    60    74    75    1
    61    76    79    1
    62    77    79    1
    63    78    79    1
    64    79    80    1
    65    81    84    1
    66    82    84    1
    67    83    84    1
    68    84    85    1
    69    86    89    1
    70    87    89    1
    71    88    89    1
    72    89    90    1
    73    91    94    1
    74    92    94    1
    75    93    94    1
    76    94    95    1
    77    96    99    1
    78    97    99    1
    79    98    99    1
    80    99   100    1
    81   101   104    1
    82   102   104    1
    83   103   104    1
    84   104   105    1
    85   106   109    1
    86   107   109    1
    87   108   109    1
    88   109   110    1
    89   111   114    1
    90   112   114    1
    91   113   114    1
    92   114   115    1
    93   116   119    1
    94   117   119    1
    95   118   119    1
    96   119   120    1
    97   121   124    1
    98   122   124    1
    99   123   124    1
   100   124   125    1
   101   126   129    1
   102   127   129    1
   103   128   129    1
   104   129   130    1
   105   131   134    1
   106   132   134    1
   107   133   134    1
   108   134   135    1
   109   136   139    1
   110   137   139    1
   111   138   139    1
   112   139   140    1
   113   141   144    1
   114   142   144    1
   115   143   144    1
   116   144   145    1
   117   146   149    1
   118   147   149    1
   119   148   149    1
   120   149   150    1
   121   151   154    1
   122   152   154    1
   123   153   154    1
   124   154   155    1
   125   156   159    1
   126   157   159    1
   127   158   159    1
   128   159   160    1
   129   161   164    1
   130   162   164    1
   131   163   164    1
   132   164   165    1
   133   166   169    1
   134   167   169    1
   135   168   169    1
   136   169   170    1
   137   171   174    1
   138   172   174    1
   139   173   174    1
   140   174   175    1
   141   176   179    1
   142   177   179    1
   143   178   179    1
   144   179   180    1
   145   181   184    1
   146   182   184    1
   147   183   184    1
   148   184   185    1
   149   186   189    1
   150   187   189    1
   151   188   189    1
   152   189   190    1
   153   191   194    1
   154   192   194    1
   155   193   194    1
   156   194   195    1
   157   196   199    1
   158   197   199    1
   159   198   199    1
   160   199   200    1
   161   201   204    1
   162   202   204    1
   163   203   204    1
   164   204   205    1
   165   206   209    1
   166   207   209    1
   167   208   209    1
   168   209   210    1
   169   211   214    1
   170   212   214    1
   171   213   214    1
   172   214   215    1
   173   216   219    1
   174   217   219    1
   175   218   219    1
   176   219   220    1
   177   221   224    1
   178   222   224    1
   179   223   224    1
   180   224   225    1
   181   226   229    1
   182   227   229    1
   183   228   229    1
   184   229   230    1
   185   231   234    1
   186   232   234    1
   187   233   234    1
   188   234   235    1
   189   236   239    1
   190   237   239    1
   191   238   239    1
   192   239   240    1
   193   241   244    1
   194   242   244    1
   195   243   244    1
   196   244   245    1
   197   246   249    1
   198   247   249    1
   199   248   249    1
   200   249   250    1
   201   251   254    1
   202   252   254    1
   203   253   254    1
   204   254   255    1
   205   256   259    1
   206   257   259    1
   207   258   259    1
   208   259   260    1
   209   261   264    1
   210   262   264    1
   211   263   264    1
   212   264   265    1
   213   266   269    1
   214   267   269    1
   215   268   269    1
   216   269   270    1
   217   271   274    1
   218   272   274    1
   219   273   274    1
   220   274   275    1
   221   276   279    1
   222   277   279    1
   223   278   279    1
   224   279   280    1
   225   281   284    1
   226   282   284    1
   227   283   284    1
   228   284   285    1
   229   286   289    1
   230   287   289    1
   231   288   289    1
   232   289   290    1
   233   291   294    1
   234   292   294    1
   235   293   294    1
   236   294   295    1
   237   296   299    1
   238   297   299    1
   239   298   299    1
   240   299   300    1
   241   301   304    1
   242   302   304    1
   243   303   304    1
   244   304   305    1
   245   306   309    1
   246   307   309    1
   247   308   309    1
   248   309   310    1
   249   311   314    1
   250   312   314    1
   251   313   314    1
   252   314   315    1
   253   316   319    1
   254   317   319    1
   255   318   319    1
   256   319   320    1
   257   321   324    1
   258   322   324    1
   259   323   324    1
   260   324   325    1
   261   326   329    1
   262   327   329    1
   263   328   329    1
   264   329   330    1
   265   331   334    1
   266   332   334    1
   267   333   334    1
   268   334   335    1
   269   336   339    1
   270   337   339    1
   271   338   339    1
   272   339   340    1
   273   341   344    1
   274   342   344    1
   275   343   344    1
   276   344   345    1
   277   346   349    1
   278   347   349    1
   279   348   349    1
   280   349   350    1
   281   351   354    1
   282   352   354    1
   283   353   354    1
   284   354   355    1
   285   356   359    1
   286   357   359    1
   287   358   359    1
   288   359   360    1
   289   361   364    1
   290   362   364    1
   291   363   364    1
   292   364   365    1
   293   366   369    1
   294   367   369    1
   295   368   369    1
   296   369   370    1
   297   371   374    1
   298   372   374    1
   299   373   374    1
   300   374   375    1
   301   376   379    1
   302   377   379    1
   303   378   379    1
   304   379   380    1
   305   381   384    1
   306   382   384    1
   307   383   384    1
   308   384   385    1
   309   386   389    1
   310   387   389    1
   311   388   389    1
   312   389   390    1
   313   391   394    1
   314   392   394    1
   315   393   394    1
   316   394   395    1
   317   396   399    1
   318   397   399    1
   319   398   399    1
   320   399   400    1
   321   401   404    1
   322   402   404    1
   323   403   404    1
   324   404   405    1
   325   406   409    1
   326   407   409    1
   327   408   409    1
   328   409   410    1
   329   411   414    1
   330   412   414    1
   331   413   414    1
   332   414   415    1
   333   416   419    1
   334   417   419    1
   335   418   419    1
   336   419   420    1
   337   421   424    1
   338   422   424    1
   339   423   424    1
   340   424   425    1
   341   426   429    1
   342   427   429    1
   343   428   429    1
   344   429   430    1
   345   431   434    1
   346   432   434    1
   347   433   434    1
   348   434   435    1
   349   436   439    1
   350   437   439    1
   351   438   439    1
   352   439   440    1
   353   441   444    1
   354   442   444    1
   355   443   444    1
   356   444   445    1
   357   446   449    1
   358   447   449    1
   359   448   449    1
   360   449   450    1
   361   451   454    1
   362   452   454    1
   363   453   454    1
   364   454   455    1
   365   456   459    1
   366   457   459    1
   367   458   459    1
   368   459   460    1
   369   461   464    1
   370   462   464    1
   371   463   464    1
   372   464   465    1
   373   466   469    1
   374   467   469    1
   375   468   469    1
   376   469   470    1
   377   471   474    1
   378   472   474    1
   379   473   474    1
   380   474   475    1
   381   476   479    1
   382   477   479    1
   383   478   479    1
   384   479   480    1
   385   481   484    1
   386   482   484    1
   387   483   484    1
   388   484   485    1
   389   486   489    1
   390   487   489    1
   391   488   489    1
   392   489   490    1
   393   491   494    1
   394   492   494    1
   395   493   494    1
   396   494   495    1
   397   496   499    1
   398   497   499    1
   399   498   499    1
   400   499   500    1
   401   501   504    1
   402   502   504    1
   403   503   504    1
   404   504   505    1
   405   506   509    1
   406   507   509    1
   407   508   509    1
   408   509   510    1
   409   511   514    1
   410   512   514    1
   411   513   514    1
   412   514   515    1
   413   516   519    1
   414   517   519    1
   415   518   519    1
   416   519   520    1
   417   521   524    1
   418   522   524    1
   419   523   524    1
   420   524   525    1
   421   526   529    1
   422   527   529    1
   423   528   529    1
   424   529   530    1
   425   531   534    1
   426   532   534    1
   427   533   534    1
   428   534   535    1
   429   536   539    1
   430   537   539    1
   431   538   539    1
   432   539   540    1
   433   541   544    1
   434   542   544    1
   435   543   544    1
   436   544   545    1
   437   546   549    1
   438   547   549    1
   439   548   549    1
   440   549   550    1
   441   551   554    1
   442   552   554    1
   443   553   554    1
   444   554   555    1
   445   556   559    1
   446   557   559    1
   447   558   559    1
   448   559   560    1
   449   561   564    1
   450   562   564    1
   451   563   564    1
   452   564   565    1
   453   566   569    1
   454   567   569    1
   455   568   569    1
   456   569   570    1
   457   571   574    1
   458   572   574    1
   459   573   574    1
   460   574   575    1
   461   576   579    1
   462   577   579    1
   463   578   579    1
   464   579   580    1
   465   581   584    1
   466   582   584    1
   467   583   584    1
   468   584   585    1
   469   586   589    1
   470   587   589    1
   471   588   589    1
   472   589   590    1
   473   591   594    1
   474   592   594    1
   475   593   594    1
   476   594   595    1
   477   596   599    1
   478   597   599    1
   479   598   599    1
   480   599   600    1
   481   601   604    1
   482   602   604    1
   483   603   604    1
   484   604   605    1
   485   606   609    1
   486   607   609    1
   487   608   609    1
   488   609   610    1
   489   611   614    1
   490   612   614    1
   491   613   614    1
   492   614   615    1
   493   616   619    1
   494   617   619    1
   495   618   619    1
   496   619   620    1
   497   621   624    1
   498   622   624    1
   499   623   624    1
   500   624   625    1
   501   626   629    1
   502   627   629    1
   503   628   629    1
   504   629   630    1
   505   631   634    1
   506   632   634    1
   507   633   634    1
   508   634   635    1
   509   636   639    1
   510   637   639    1
   511   638   639    1
   512   639   640    1
   513   641   644    1
   514   642   644    1
   515   643   644    1
   516   644   645    1
   517   646   649    1
   518   647   649    1
   519   648   649    1
   520   649   650    1
   521   651   654    1
   522   652   654    1
   523   653   654    1
   524   654   655    1
   525   656   659    1
   526   657   659    1
   527   658   659    1
   528   659   660    1
   529   661   664    1
   530   662   664    1
   531   663   664    1
   532   664   665    1
   533   666   669    1
   534   667   669    1
   535   668   669    1
   536   669   670    1
   537   671   674    1
   538   672   674    1
   539   673   674    1
   540   674   675    1
   541   676   679    1
   542   677   679    1
   543   678   679    1
   544   679   680    1
   545   681   684    1
   546   682   684    1
   547   683   684    1
   548   684   685    1
   549   686   689    1
   550   687   689    1
   551   688   689    1
   552   689   690    1
   553   691   694    1
   554   692   694    1
   555   693   694    1
   556   694   695    1
   557   696   699    1
   558   697   699    1
   559   698   699    1
   560   699   700    1
   561   701   704    1
   562   702   704    1
   563   703   704    1
   564   704   705    1
   565   706   709    1
   566   707   709    1
   567   708   709    1
   568   709   710    1
   569   711   714    1
   570   712   714    1
   571   713   714    1
   572   714   715    1
   573   716   719    1
   574   717   719    1
   575   718   719    1
   576   719   720    1
   577   721   724    1
   578   722   724    1
   579   723   724    1
   580   724   725    1
   581   726   729    1
   582   727   729    1
   583   728   729    1
   584   729   730    1
   585   731   734    1
   586   732   734    1
   587   733   734    1
   588   734   735    1
   589   736   739    1
   590   737   739    1
   591   738   739    1
   592   739   740    1
   593   741   744    1
   594   742   744    1
   595   743   744    1
   596   744   745    1
   597   746   749    1
   598   747   749    1
   599   748   749    1
   600   749   750    1
   601   751   754    1
   602   752   754    1
   603   753   754    1
   604   754   755    1
   605   756   759    1
   606   757   759    1
   607   758   759    1
   608   759   760    1
   609   761   764    1
   610   762   764    1
   611   763   764    1
   612   764   765    1
   613   766   769    1
   614   767   769    1
   615   768   769    1
   616   769   770    1
   617   771   774    1
   618   772   774    1
   619   773   774    1
   620   774   775    1
   621   776   779    1
   622   777   779    1
   623   778   779    1
   624   779   780    1
   625   781   784    1
   626   782   784    1
   627   783   784    1
   628   784   785    1
   629   786   789    1
   630   787   789    1
   631   788   789    1
   632   789   790    1
   633   791   794    1
   634   792   794    1
   635   793   794    1
   636   794   795    1
   637   796   799    1
   638   797   799    1
   639   798   799    1
   640   799   800    1
   641   801   804    1
   642   802   804    1
   643   803   804    1
   644   804   805    1
   645   806   809    1
   646   807   809    1
   647   808   809    1
   648   809   810    1
   649   811   814    1
   650   812   814    1
   651   813   814    1
   652   814   815    1
   653   816   819    1
   654   817   819    1
   655   818   819    1
   656   819   820    1
   657   821   824    1
   658   822   824    1
   659   823   824    1
   660   824   825    1
   661   826   829    1
   662   827   829    1
   663   828   829    1
   664   829   830    1
   665   831   834    1
   666   832   834    1
   667   833   834    1
   668   834   835    1
   669   836   839    1
   670   837   839    1
   671   838   839    1
   672   839   840    1
   673   841   844    1
   674   842   844    1
   675   843   844    1
   676   844   845    1
   677   846   849    1
   678   847   849    1
   679   848   849    1
   680   849   850    1
   681   851   854    1
   682   852   854    1
   683   853   854    1
   684   854   855    1
   685   856   859    1
   686   857   859    1
   687   858   859    1
   688   859   860    1
   689   861   864    1
   690   862   864    1
   691   863   864    1
   692   864   865    1
   693   866   869    1
   694   867   869    1
   695   868   869    1
   696   869   870    1
   697   871   874    1
   698   872   874    1
   699   873   874    1
   700   874   875    1
   701   876   879    1
   702   877   879    1
   703   878   879    1
   704   879   880    1
   705   881   884    1
   706   882   884    1
   707   883   884    1
   708   884   885    1
   709   886   889    1
   710   887   889    1
   711   888   889    1
   712   889   890    1
   713   891   894    1
   714   892   894    1
   715   893   894    1
   716   894   895    1
   717   896   899    1
   718   897   899    1
   719   898   899    1
   720   899   900    1
   721   901   904    1
   722   902   904    1
   723   903   904    1
   724   904   905    1
   725   906   909    1
   726   907   909    1
   727   908   909    1
   728   909   910    1
   729   911   914    1
   730   912   914    1
   731   913   914    1
   732   914   915    1
   733   916   919    1
   734   917   919    1
   735   918   919    1
   736   919   920    1
   737   921   924    1
   738   922   924    1
   739   923   924    1
   740   924   925    1
   741   926   929    1
   742   927   929    1
   743   928   929    1
   744   929   930    1
   745   931   934    1
   746   932   934    1
   747   933   934    1
   748   934   935    1
   749   936   939    1
   750   937   939    1
   751   938   939    1
   752   939   940    1
   753   941   944    1
   754   942   944    1
   755   943   944    1
   756   944   945    1
   757   946   949    1
   758   947   949    1
   759   948   949    1
   760   949   950    1
   761   951   954    1
   762   952   954    1
   763   953   954    1
   764   954   955    1
   765   956   959    1
   766   957   959    1
   767   958   959    1
   768   959   960    1
   769   961   964    1
   770   962   964    1
   771   963   964    1
   772   964   965    1
   773   966   969    1
   774   967   969    1
   775   968   969    1
   776   969   970    1
   777   971   974    1
   778   972   974    1
   779   973   974    1
   780   974   975    1
   781   976   979    1
   782   977   979    1
   783   978   979    1
   784   979   980    1
   785   981   984    1
   786   982   984    1
   787   983   984    1
   788   984   985    1
   789   986   989    1
   790   987   989    1
   791   988   989    1
   792   989   990    1
   793   991   994    1
   794   992   994    1
   795   993   994    1
   796   994   995    1
   797   996   999    1
   798   997   999    1
   799   998   999    1
   800   999  1000    1
   801  1001  1004    1
   802  1002  1004    1
   803  1003  1004    1
   804  1004  1005    1
   805  1006  1009    1
   806  1007  1009    1
   807  1008  1009    1
   808  1009  1010    1
   809  1011  1014    1
   810  1012  1014    1
   811  1013  1014    1
   812  1014  1015    1
   813  1016  1019    1
   814  1017  1019    1
   815  1018  1019    1
   816  1019  1020    1
   817  1021  1024    1
   818  1022  1024    1
   819  1023  1024    1
   820  1024  1025    1
   821  1026  1029    1
   822  1027  1029    1
   823  1028  1029    1
   824  1029  1030    1
   825  1031  1034    1
   826  1032  1034    1
   827  1033  1034    1
   828  1034  1035    1
   829  1036  1039    1
   830  1037  1039    1
   831  1038  1039    1
   832  1039  1040    1
   833  1041  1044    1
   834  1042  1044    1
   835  1043  1044    1
   836  1044  1045    1
   837  1046  1049    1
   838  1047  1049    1
   839  1048  1049    1
   840  1049  1050    1
   841  1051  1054    1
   842  1052  1054    1
   843  1053  1054    1
   844  1054  1055    1
   845  1056  1059    1
   846  1057  1059    1
   847  1058  1059    1
   848  1059  1060    1
   849  1061  1064    1
   850  1062  1064    1
   851  1063  1064    1
   852  1064  1065    1
   853  1066  1069    1
   854  1067  1069    1
   855  1068  1069    1
   856  1069  1070    1
   857  1071  1074    1
   858  1072  1074    1
   859  1073  1074    1
   860  1074  1075    1
   861  1076  1079    1
   862  1077  1079    1
   863  1078  1079    1
   864  1079  1080    1
   865  1081  1084    1
   866  1082  1084    1
   867  1083  1084    1
   868  1084  1085    1
   869  1086  1089    1
   870  1087  1089    1
   871  1088  1089    1
   872  1089  1090    1
   873  1091  1094    1
   874  1092  1094    1
   875  1093  1094    1
   876  1094  1095    1
   877  1096  1099    1
   878  1097  1099    1
   879  1098  1099    1
   880  1099  1100    1
   881  1101  1104    1
   882  1102  1104    1
   883  1103  1104    1
   884  1104  1105    1
   885  1106  1109    1
   886  1107  1109    1
   887  1108  1109    1
   888  1109  1110    1
   889  1111  1114    1
   890  1112  1114    1
   891  1113  1114    1
   892  1114  1115    1
   893  1116  1119    1
   894  1117  1119    1
   895  1118  1119    1
   896  1119  1120    1
   897  1121  1124    1
   898  1122  1124    1
   899  1123  1124    1
   900  1124  1125    1
   901  1126  1129    1
   902  1127  1129    1
   903  1128  1129    1
   904  1129  1130    1
   905  1131  1134    1
   906  1132  1134    1
   907  1133  1134    1
   908  1134  1135    1
   909  1136  1139    1
   910  1137  1139    1
   911  1138  1139    1
   912  1139  1140    1
   913  1141  1144    1
   914  1142  1144    1
   915  1143  1144    1
   916  1144  1145    1
   917  1146  1149    1
   918  1147  1149    1
   919  1148  1149    1
   920  1149  1150    1
   921  1151  1154    1
   922  1152  1154    1
   923  1153  1154    1
   924  1154  1155    1
   925  1156  1159    1
   926  1157  1159    1
   927  1158  1159    1
   928  1159  1160    1
   929  1161  1164    1
   930  1162  1164    1
   931  1163  1164    1
   932  1164  1165    1
   933  1166  1169    1
   934  1167  1169    1
   935  1168  1169    1
   936  1169  1170    1
   937  1171  1174    1
   938  1172  1174    1
   939  1173  1174    1
   940  1174  1175    1
   941  1176  1179    1
   942  1177  1179    1
   943  1178  1179    1
   944  1179  1180    1
   945  1181  1184    1
   946  1182  1184    1
   947  1183  1184    1
   948  1184  1185    1
   949  1186  1189    1
   950  1187  1189    1
   951  1188  1189    1
   952  1189  1190    1
   953  1191  1194    1
   954  1192  1194    1
   955  1193  1194    1
   956  1194  1195    1
   957  1196  1199    1
   958  1197  1199    1
   959  1198  1199    1
   960  1199  1200    1
   961  1201  1204    1
   962  1202  1204    1
   963  1203  1204    1
   964  1204  1205    1
   965  1206  1209    1
   966  1207  1209    1
   967  1208  1209    1
   968  1209  1210    1
   969  1211  1214    1
   970  1212  1214    1
   971  1213  1214    1
   972  1214  1215    1
   973  1216  1219    1
   974  1217  1219    1
   975  1218  1219    1
   976  1219  1220    1
   977  1221  1224    1
   978  1222  1224    1
   979  1223  1224    1
   980  1224  1225    1
   981  1226  1229    1
   982  1227  1229    1
   983  1228  1229    1
   984  1229  1230    1
   985  1231  1234    1
   986  1232  1234    1
   987  1233  1234    1
   988  1234  1235    1
   989  1236  1239    1
   990  1237  1239    1
   991  1238  1239    1
   992  1239  1240    1
   993  1241  1244    1
   994  1242  1244    1
   995  1243  1244    1
   996  1244  1245    1
   997  1246  1249    1
   998  1247  1249    1
   999  1248  1249    1
  1000  1249  1250    1
  1001  1251  1254    1
  1002  1252  1254    1
  1003  1253  1254    1
  1004  1254  1255    1
  1005  1256  1259    1
  1006  1257  1259    1
  1007  1258  1259    1
  1008  1259  1260    1
  1009  1261  1264    1
  1010  1262  1264    1
  1011  1263  1264    1
  1012  1264  1265    1
  1013  1266  1269    1
  1014  1267  1269    1
  1015  1268  1269    1
  1016  1269  1270    1
  1017  1271  1274    1
  1018  1272  1274    1
  1019  1273  1274    1
  1020  1274  1275    1
  1021  1276  1279    1
  1022  1277  1279    1
  1023  1278  1279    1
  1024  1279  1280    1
  1025  1281  1284    1
  1026  1282  1284    1
  1027  1283  1284    1
  1028  1284  1285    1
  1029  1286  1289    1
  1030  1287  1289    1
  1031  1288  1289    1
  1032  1289  1290    1
  1033  1291  1294    1
  1034  1292  1294    1
  1035  1293  1294    1
  1036  1294  1295    1
  1037  1296  1299    1
  1038  1297  1299    1
  1039  1298  1299    1
  1040  1299  1300    1
  1041  1301  1304    1
  1042  1302  1304    1
  1043  1303  1304    1
  1044  1304  1305    1
  1045  1306  1309    1
  1046  1307  1309    1
  1047  1308  1309    1
  1048  1309  1310    1
  1049  1311  1314    1
  1050  1312  1314    1
  1051  1313  1314    1
  1052  1314  1315    1
  1053  1316  1319    1
  1054  1317  1319    1
  1055  1318  1319    1
  1056  1319  1320    1
  1057  1321  1324    1
  1058  1322  1324    1
  1059  1323  1324    1
  1060  1324  1325    1
  1061  1326  1329    1
  1062  1327  1329    1
  1063  1328  1329    1
  1064  1329  1330    1
  1065  1331  1334    1
  1066  1332  1334    1
  1067  1333  1334    1
  1068  1334  1335    1
  1069  1336  1339    1
  1070  1337  1339    1
  1071  1338  1339    1
  1072  1339  1340    1
  1073  1341  1344    1
  1074  1342  1344    1
  1075  1343  1344    1
  1076  1344  1345    1
  1077  1346  1349    1
  1078  1347  1349    1
  1079  1348  1349    1
  1080  1349  1350    1
  1081  1351  1354    1
  1082  1352  1354    1
  1083  1353  1354    1
  1084  1354  1355    1
  1085  1356  1359    1
  1086  1357  1359    1
  1087  1358  1359    1
  1088  1359  1360    1
  1089  1361  1364    1
  1090  1362  1364    1
  1091  1363  1364    1
  1092  1364  1365    1
  1093  1366  1369    1
  1094  1367  1369    1
  1095  1368  1369    1
  1096  1369  1370    1
  1097  1371  1374    1
  1098  1372  1374    1
  1099  1373  1374    1
  1100  1374  1375    1
  1101  1376  1379    1
  1102  1377  1379    1
  1103  1378  1379    1
  1104  1379  1380    1
  1105  1381  1384    1
  1106  1382  1384    1
  1107  1383  1384    1
  1108  1384  1385    1
  1109  1386  1389    1
  1110  1387  1389    1
  1111  1388  1389    1
  1112  1389  1390    1
  1113  1391  1394    1
  1114  1392  1394    1
  1115  1393  1394    1
  1116  1394  1395    1
  1117  1396  1399    1
  1118  1397  1399    1
  1119  1398  1399    1
  1120  1399  1400    1
  1121  1401  1404    1
  1122  1402  1404    1
  1123  1403  1404    1
  1124  1404  1405    1
  1125  1406  1409    1
  1126  1407  1409    1
  1127  1408  1409    1
  1128  1409  1410    1
  1129  1411  1414    1
  1130  1412  1414    1
  1131  1413  1414    1
  1132  1414  1415    1
  1133  1416  1419    1
  1134  1417  1419    1
  1135  1418  1419    1
  1136  1419  1420    1
  1137  1421  1424    1
  1138  1422  1424    1
  1139  1423  1424    1
  1140  1424  1425    1
  1141  1426  1429    1
  1142  1427  1429    1
  1143  1428  1429    1
  1144  1429  1430    1
  1145  1431  1434    1
  1146  1432  1434    1
  1147  1433  1434    1
  1148  1434  1435    1
  1149  1436  1439    1
  1150  1437  1439    1
  1151  1438  1439    1
  1152  1439  1440    1
  1153  1441  1444    1
  1154  1442  1444    1
  1155  1443  1444    1
  1156  1444  1445    1
  1157  1446  1449    1
  1158  1447  1449    1
  1159  1448  1449    1
  1160  1449  1450    1
  1161  1451  1454    1
  1162  1452  1454    1
  1163  1453  1454    1
  1164  1454  1455    1
  1165  1456  1459    1
  1166  1457  1459    1
  1167  1458  1459    1
  1168  1459  1460    1
  1169  1461  1464    1
  1170  1462  1464    1
  1171  1463  1464    1
  1172  1464  1465    1
  1173  1466  1469    1
  1174  1467  1469    1
  1175  1468  1469    1
  1176  1469  1470    1
  1177  1471  1474    1
  1178  1472  1474    1
  1179  1473  1474    1
  1180  1474  1475    1
  1181  1476  1479    1
  1182  1477  1479    1
  1183  1478  1479    1
  1184  1479  1480    1
  1185  1481  1484    1
  1186  1482  1484    1
  1187  1483  1484    1
  1188  1484  1485    1
  1189  1486  1489    1
  1190  1487  1489    1
  1191  1488  1489    1
  1192  1489  1490    1
  1193  1491  1494    1
  1194  1492  1494    1
  1195  1493  1494    1
  1196  1494  1495    1
  1197  1496  1499    1
  1198  1497  1499    1
  1199  1498  1499    1
  1200  1499  1500    1
  1201  1501  1504    1
  1202  1502  1504    1
  1203  1503  1504    1
  1204  1504  1505    1
  1205  1506  1509    1
  1206  1507  1509    1
  1207  1508  1509    1
  1208  1509  1510    1
  1209  1511  1514    1
  1210  1512  1514    1
  1211  1513  1514    1
  1212  1514  1515    1
  1213  1516  1519    1
  1214  1517  1519    1
  1215  1518  1519    1
  1216  1519  1520    1
  1217  1521  1524    1
  1218  1522  1524    1
  1219  1523  1524    1
  1220  1524  1525    1
  1221  1526  1529    1
  1222  1527  1529    1
  1223  1528  1529    1
  1224  1529  1530    1
  1225  1531  1534    1
  1226  1532  1534    1
  1227  1533  1534    1
  1228  1534  1535    1
  1229  1536  1539    1
  1230  1537  1539    1
  1231  1538  1539    1
  1232  1539  1540    1
  1233  1541  1544    1
  1234  1542  1544    1
  1235  1543  1544    1
  1236  1544  1545    1
  1237  1546  1549    1
  1238  1547  1549    1
  1239  1548  1549    1
  1240  1549  1550    1
  1241  1551  1554    1
  1242  1552  1554    1
  1243  1553  1554    1
  1244  1554  1555    1
  1245  1556  1559    1
  1246  1557  1559    1
  1247  1558  1559    1
  1248  1559  1560    1
  1249  1561  1564    1
  1250  1562  1564    1
  1251  1563  1564    1
  1252  1564  1565    1
  1253  1566  1569    1
  1254  1567  1569    1
  1255  1568  1569    1
  1256  1569  1570    1
  1257  1571  1574    1
  1258  1572  1574    1
  1259  1573  1574    1
  1260  1574  1575    1
  1261  1576  1579    1
  1262  1577  1579    1
  1263  1578  1579    1
  1264  1579  1580    1
  1265  1581  1584    1
  1266  1582  1584    1
  1267  1583  1584    1
  1268  1584  1585    1
  1269  1586  1589    1
  1270  1587  1589    1
  1271  1588  1589    1
  1272  1589  1590    1
  1273  1591  1594    1
  1274  1592  1594    1
  1275  1593  1594    1
  1276  1594  1595    1
  1277  1596  1599    1
  1278  1597  1599    1
  1279  1598  1599    1
  1280  1599  1600    1
  1281  1601  1604    1
  1282  1602  1604    1
  1283  1603  1604    1
  1284  1604  1605    1
  1285  1606  1609    1
  1286  1607  1609    1
  1287  1608  1609    1
  1288  1609  1610    1
  1289  1611  1614    1
  1290  1612  1614    1
  1291  1613  1614    1
  1292  1614  1615    1
  1293  1616  1619    1
  1294  1617  1619    1
  1295  1618  1619    1
  1296  1619  1620    1
  1297  1621  1624    1
  1298  1622  1624    1
  1299  1623  1624    1
  1300  1624  1625    1
  1301  1626  1629    1
  1302  1627  1629    1
  1303  1628  1629    1
  1304  1629  1630    1
  1305  1631  1634    1
  1306  1632  1634    1
  1307  1633  1634    1
  1308  1634  1635    1
  1309  1636  1639    1
  1310  1637  1639    1
  1311  1638  1639    1
  1312  1639  1640    1
  1313  1641  1644    1
  1314  1642  1644    1
  1315  1643  1644    1
  1316  1644  1645    1
  1317  1646  1649    1
  1318  1647  1649    1
  1319  1648  1649    1
  1320  1649  1650    1
  1321  1651  1654    1
  1322  1652  1654    1
  1323  1653  1654    1
  1324  1654  1655    1
  1325  1656  1659    1
  1326  1657  1659    1
  1327  1658  1659    1
  1328  1659  1660    1
  1329  1661  1664    1
  1330  1662  1664    1
  1331  1663  1664    1
  1332  1664  1665    1
  1333  1666  1669    1
  1334  1667  1669    1
  1335  1668  1669    1
  1336  1669  1670    1
  1337  1671  1674    1
  1338  1672  1674    1
  1339  1673  1674    1
  1340  1674  1675    1
  1341  1676  1679    1
  1342  1677  1679    1
  1343  1678  1679    1
  1344  1679  1680    1
  1345  1681  1684    1
  1346  1682  1684    1
  1347  1683  1684    1
  1348  1684  1685    1
  1349  1686  1689    1
  1350  1687  1689    1
  1351  1688  1689    1
  1352  1689  1690    1
  1353  1691  1694    1
  1354  1692  1694    1
  1355  1693  1694    1
  1356  1694  1695    1
  1357  1696  1699    1
  1358  1697  1699    1
  1359  1698  1699    1
  1360  1699  1700    1
  1361  1701  1704    1
  1362  1702  1704    1
  1363  1703  1704    1
  1364  1704  1705    1
  1365  1706  1709    1
  1366  1707  1709    1
  1367  1708  1709    1
  1368  1709  1710    1
  1369  1711  1714    1
  1370  1712  1714    1
  1371  1713  1714    1
  1372  1714  1715    1
  1373  1716  1719    1
  1374  1717  1719    1
  1375  1718  1719    1
  1376  1719  1720    1
  1377  1721  1724    1
  1378  1722  1724    1
  1379  1723  1724    1
  1380  1724  1725    1
  1381  1726  1729    1
  1382  1727  1729    1
  1383  1728  1729    1
  1384  1729  1730    1
  1385  1731  1734    1
  1386  1732  1734    1
  1387  1733  1734    1
  1388  1734  1735    1
  1389  1736  1739    1
  1390  1737  1739    1
  1391  1738  1739    1
  1392  1739  1740    1
  1393  1741  1744    1
  1394  1742  1744    1
  1395  1743  1744    1
  1396  1744  1745    1
  1397  1746  1749    1
  1398  1747  1749    1
  1399  1748  1749    1
  1400  1749  1750    1
  1401  1751  1754    1
  1402  1752  1754    1
  1403  1753  1754    1
  1404  1754  1755    1
  1405  1756  1759    1
  1406  1757  1759    1
  1407  1758  1759    1
  1408  1759  1760    1
  1409  1761  1764    1
  1410  1762  1764    1
  1411  1763  1764    1
  1412  1764  1765    1
  1413  1766  1769    1
  1414  1767  1769    1
  1415  1768  1769    1
  1416  1769  1770    1
  1417  1771  1774    1
  1418  1772  1774    1
  1419  1773  1774    1
  1420  1774  1775    1
  1421  1776  1779    1
  1422  1777  1779    1
  1423  1778  1779    1
  1424  1779  1780    1
  1425  1781  1784    1
  1426  1782  1784    1
  1427  1783  1784    1
  1428  1784  1785    1
  1429  1786  1789    1
  1430  1787  1789    1
  1431  1788  1789    1
  1432  1789  1790    1
  1433  1791  1794    1
  1434  1792  1794    1
  1435  1793  1794    1
  1436  1794  1795    1
  1437  1796  1799    1
  1438  1797  1799    1
  1439  1798  1799    1
  1440  1799  1800    1
  1441  1801  1804    1
  1442  1802  1804    1
  1443  1803  1804    1
  1444  1804  1805    1
  1445  1806  1809    1
  1446  1807  1809    1
  1447  1808  1809    1
  1448  1809  1810    1
  1449  1811  1814    1
  1450  1812  1814    1
  1451  1813  1814    1
  1452  1814  1815    1
  1453  1816  1819    1
  1454  1817  1819    1
  1455  1818  1819    1
  1456  1819  1820    1
  1457  1821  1824    1
  1458  1822  1824    1
  1459  1823  1824    1
  1460  1824  1825    1
  1461  1826  1829    1
  1462  1827  1829    1
  1463  1828  1829    1
  1464  1829  1830    1
  1465  1831  1834    1
  1466  1832  1834    1
  1467  1833  1834    1
  1468  1834  1835    1
  1469  1836  1839    1
  1470  1837  1839    1
  1471  1838  1839    1
  1472  1839  1840    1
  1473  1841  1844    1
  1474  1842  1844    1
  1475  1843  1844    1
  1476  1844  1845    1
  1477  1846  1849    1
  1478  1847  1849    1
  1479  1848  1849    1
  1480  1849  1850    1
  1481  1851  1854    1
  1482  1852  1854    1
  1483  1853  1854    1
  1484  1854  1855    1
  1485  1856  1859    1
  1486  1857  1859    1
  1487  1858  1859    1
  1488  1859  1860    1
  1489  1861  1864    1
  1490  1862  1864    1
  1491  1863  1864    1
  1492  1864  1865    1
