@<TRIPOS>MOLECULE
*****
 55 44 0 0 0
SMALL
GASTEIGER

@<TRIPOS>ATOM
      1 CL         -2.2514   -2.0561   -0.9359 Cl      1  UNL1       -0.0870
      2 CL          0.0690   -0.2954   -0.9359 Cl      1  UNL1       -0.0870
      3 CL          0.4335   -3.1854   -0.9360 Cl      1  UNL1       -0.0870
      4 C          -0.5830   -1.8455   -1.4934 C.3     1  UNL1        0.1805
      5 H          -0.5831   -1.8455   -2.5864 H       1  UNL1        0.0806
      6 CL         -0.2720   -1.1361    5.2770 Cl      2  UNL2       -0.0870
      7 CL         -2.0685   -3.4289    5.2770 Cl      2  UNL2       -0.0870
      8 CL         -3.1559   -0.7265    5.2769 Cl      2  UNL2       -0.0870
      9 C          -1.8321   -1.7640    4.7195 C.3     2  UNL2        0.1805
     10 H          -1.8320   -1.7639    3.6265 H       2  UNL2        0.0806
     11 CL         -0.3896    3.5710    9.9457 Cl      3  UNL3       -0.0870
     12 CL         -2.4640    1.7474   10.8706 Cl      3  UNL3       -0.0870
     13 CL          0.3441    1.0676   11.2413 Cl      3  UNL3       -0.0870
     14 C          -0.8402    2.3841   11.1814 C.3     3  UNL3        0.1805
     15 H          -0.8472    2.8849   12.1529 H       3  UNL3        0.0806
     16 CL         -2.5891    4.7122    1.0639 Cl      4  UNL4       -0.0870
     17 CL         -0.0297    3.9869    2.2504 Cl      4  UNL4       -0.0870
     18 CL         -2.4110    4.1625    3.9187 Cl      4  UNL4       -0.0870
     19 C          -1.7841    3.7489    2.3140 C.3     4  UNL4        0.1805
     20 H          -1.9952    2.6934    2.1239 H       4  UNL4        0.0806
     21 CL          4.9541   -0.6938   -2.3601 Cl      5  UNL5       -0.0870
     22 CL          3.8959   -2.7795   -0.6239 Cl      5  UNL5       -0.0870
     23 CL          5.9242   -3.4288   -2.6111 Cl      5  UNL5       -0.0870
     24 C           5.3246   -2.1930   -1.4918 C.3     5  UNL5        0.1805
     25 H           6.1089   -1.9819   -0.7604 H       5  UNL5        0.0806
     26 CL          4.3992    0.6395    3.7600 Cl      6  UNL6       -0.0870
     27 CL          7.2656    1.1573    3.7600 Cl      6  UNL6       -0.0870
     28 CL          6.2807   -1.5840    3.7599 Cl      6  UNL6       -0.0870
     29 C           5.9819    0.0711    3.2025 C.3     6  UNL6        0.1805
     30 H           5.9818    0.0711    2.1095 H       6  UNL6        0.0806
     31 CL          6.7253   -3.0689    7.9029 Cl      7  UNL7       -0.0870
     32 CL          3.8349   -3.4288    7.9029 Cl      7  UNL7       -0.0870
     33 CL          4.9685   -0.7456    7.9028 Cl      7  UNL7       -0.0870
     34 C           5.1762   -2.4146    7.3454 C.3     7  UNL7        0.1805
     35 H           5.1763   -2.4146    6.2524 H       7  UNL7        0.0806
     36 CL          6.0020    3.9651   10.8731 Cl      8  UNL8       -0.0870
     37 CL          3.9095    4.6423    8.9633 Cl      8  UNL8       -0.0870
     38 CL          6.5926    4.0110    8.0212 Cl      8  UNL8       -0.0870
     39 C           5.3614    3.6678    9.2483 C.3     8  UNL8        0.1805
     40 H           5.0872    2.6124    9.1746 H       8  UNL8        0.0806
     41 CL         11.0152    1.9236   -0.9028 Cl      9  UNL9       -0.0870
     42 CL         13.8949    2.3610   -0.9028 Cl      9  UNL9       -0.0870
     43 CL         12.8337   -0.3517   -0.9029 Cl      9  UNL9       -0.0870
     44 C          12.5813    1.3111   -1.4603 C.3     9  UNL9        0.1805
     45 H          12.5812    1.3111   -2.5533 H       9  UNL9        0.0806
     46 CL         11.9737   -0.6246    3.7783 Cl     10  UNL10      -0.0870
     47 CL         10.8441   -3.3063    3.9078 Cl     10  UNL10      -0.0870
     48 CL         12.6950   -2.6071    1.7699 Cl     10  UNL10      -0.0870
     49 C          12.2656   -2.3444    3.4687 C.3    10  UNL10       0.1805
     50 H          13.1050   -2.6679    4.0896 H      10  UNL10       0.0806
     51 CL         13.7228   -2.9844    9.3685 Cl     11  UNL11      -0.0870
     52 CL         10.8441   -3.4289    9.3685 Cl     11  UNL11      -0.0870
     53 CL         11.8986   -0.7136    9.3684 Cl     11  UNL11      -0.0870
     54 C          12.1551   -2.3758    8.8110 C.3    11  UNL11       0.1805
     55 H          12.1552   -2.3758    7.7180 H      11  UNL11       0.0806
@<TRIPOS>BOND
     1     1     4    1
     2     2     4    1
     3     3     4    1
     4     4     5    1
     5     6     9    1
     6     7     9    1
     7     8     9    1
     8     9    10    1
     9    11    14    1
    10    12    14    1
    11    13    14    1
    12    14    15    1
    13    16    19    1
    14    17    19    1
    15    18    19    1
    16    19    20    1
    17    21    24    1
    18    22    24    1
    19    23    24    1
    20    24    25    1
    21    26    29    1
    22    27    29    1
    23    28    29    1
    24    29    30    1
    25    31    34    1
    26    32    34    1
    27    33    34    1
    28    34    35    1
    29    36    39    1
    30    37    39    1
    31    38    39    1
    32    39    40    1
    33    41    44    1
    34    42    44    1
    35    43    44    1
    36    44    45    1
    37    46    49    1
    38    47    49    1
    39    48    49    1
    40    49    50    1
    41    51    54    1
    42    52    54    1
    43    53    54    1
    44    54    55    1
