@<TRIPOS>MOLECULE
*****
 450 360 0 0 0
SMALL
GASTEIGER

@<TRIPOS>ATOM
      1 CL         -1.0962   -1.6789   -0.8606 Cl      1  UNL1       -0.0870
      2 CL         -2.4059    0.9228   -0.8606 Cl      1  UNL1       -0.0870
      3 CL          0.5022    0.7561   -0.8607 Cl      1  UNL1       -0.0870
      4 C          -1.0001    0.0000   -1.4181 C.3     1  UNL1        0.1805
      5 H          -1.0001   -0.0001   -2.5111 H       1  UNL1        0.0806
      6 CL         -0.0962   -1.6789    2.3897 Cl      2  UNL2       -0.0870
      7 CL         -1.4059    0.9228    2.3897 Cl      2  UNL2       -0.0870
      8 CL          1.5022    0.7561    2.3896 Cl      2  UNL2       -0.0870
      9 C          -0.0001    0.0000    1.8322 C.3     2  UNL2        0.1805
     10 H          -0.0001   -0.0001    0.7392 H       2  UNL2        0.0806
     11 CL          1.3244   -0.2241    5.3022 Cl      3  UNL3       -0.0870
     12 CL          0.4471   -0.1579    2.5255 Cl      3  UNL3       -0.0870
     13 CL         -1.4300   -0.8905    4.6290 Cl      3  UNL3       -0.0870
     14 C          -0.0299    0.1113    4.2103 C.3     3  UNL3        0.1805
     15 H          -0.3117    1.1612    4.3245 H       3  UNL3        0.0806
     16 CL         -1.0962   -1.6789    6.8902 Cl      4  UNL4       -0.0870
     17 CL         -2.4059    0.9228    6.8902 Cl      4  UNL4       -0.0870
     18 CL          0.5022    0.7561    6.8901 Cl      4  UNL4       -0.0870
     19 C          -1.0001    0.0000    6.3327 C.3     4  UNL4        0.1805
     20 H          -1.0001   -0.0001    5.2397 H       4  UNL4        0.0806
     21 CL         -1.0962    1.1470   10.0018 Cl      5  UNL5       -0.0870
     22 CL         -2.4059   -0.0187    7.6759 Cl      5  UNL5       -0.0870
     23 CL          0.5022    0.0559    7.8250 Cl      5  UNL5       -0.0870
     24 C          -1.0001   -0.1036    8.7507 C.3     5  UNL5        0.1805
     25 H          -1.0001   -1.0807    9.2405 H       5  UNL5        0.0806
     26 CL         -1.0962    2.4083   -2.0010 Cl      6  UNL6       -0.0870
     27 CL         -2.4059    1.2425    0.3249 Cl      6  UNL6       -0.0870
     28 CL          0.5022    1.3173    0.1759 Cl      6  UNL6       -0.0870
     29 C          -1.0001    2.1544   -0.2503 C.3     6  UNL6        0.1805
     30 H          -1.0001    3.1316    0.2394 H       6  UNL6        0.0806
     31 CL         -1.0962   -1.6281    2.3896 Cl      7  UNL7       -0.0870
     32 CL         -2.4059    0.9736    2.3896 Cl      7  UNL7       -0.0870
     33 CL          0.5022    0.8069    2.3896 Cl      7  UNL7       -0.0870
     34 C          -1.0001    0.0508    1.8322 C.3     7  UNL7        0.1805
     35 H          -1.0001    0.0508    0.7392 H       7  UNL7        0.0806
     36 CL         -2.1928   -0.2229    5.4333 Cl      8  UNL8       -0.0870
     37 CL          0.4777   -0.8323    4.4426 Cl      8  UNL8       -0.0870
     38 CL         -1.6267   -0.0647    2.5805 Cl      8  UNL8       -0.0870
     39 C          -0.9701    0.1621    4.2104 C.3     8  UNL8        0.1805
     40 H          -0.6882    1.2120    4.3246 H       8  UNL8        0.0806
     41 CL          1.3780   -2.9130    6.8902 Cl      9  UNL9       -0.0870
     42 CL         -1.5238   -2.6607    6.8902 Cl      9  UNL9       -0.0870
     43 CL          0.1457   -0.2737    6.8901 Cl      9  UNL9       -0.0870
     44 C          -0.0001   -1.9492    6.3327 C.3     9  UNL9        0.1805
     45 H           0.0000   -1.9493    5.2397 H       9  UNL9        0.0806
     46 CL         -1.0962    2.4083    8.0000 Cl     10  UNL10      -0.0870
     47 CL         -2.4059    1.2425   10.3259 Cl     10  UNL10      -0.0870
     48 CL          0.5022    1.3173   10.1769 Cl     10  UNL10      -0.0870
     49 C          -1.0001    2.1544    9.7507 C.3    10  UNL10       0.1805
     50 H          -1.0001    3.1316   10.2404 H      10  UNL10       0.0806
     51 CL         -1.0962    5.4228    0.1394 Cl     11  UNL11      -0.0870
     52 CL         -2.4059    8.0245    0.1394 Cl     11  UNL11      -0.0870
     53 CL          0.5022    7.8578    0.1393 Cl     11  UNL11      -0.0870
     54 C          -1.0001    7.1017   -0.4181 C.3    11  UNL11       0.1805
     55 H          -1.0001    7.1016   -1.5111 H      11  UNL11       0.0806
     56 CL         -0.0962    4.4228    2.3896 Cl     12  UNL12      -0.0870
     57 CL         -1.4059    7.0245    2.3896 Cl     12  UNL12      -0.0870
     58 CL          1.5022    6.8578    2.3896 Cl     12  UNL12      -0.0870
     59 C          -0.0001    6.1017    1.8322 C.3    12  UNL12       0.1805
     60 H          -0.0001    6.1016    0.7392 H      12  UNL12       0.0806
     61 CL         -1.0962    6.4591    2.4995 Cl     13  UNL13      -0.0870
     62 CL         -2.4059    5.2934    4.8254 Cl     13  UNL13      -0.0870
     63 CL          0.5022    5.3682    4.6764 Cl     13  UNL13      -0.0870
     64 C          -1.0001    6.2053    4.2502 C.3    13  UNL13       0.1805
     65 H          -1.0001    7.1825    4.7399 H      13  UNL13       0.0806
     66 CL         -1.0962    4.4228    6.8902 Cl     14  UNL14      -0.0870
     67 CL         -2.4059    7.0245    6.8902 Cl     14  UNL14      -0.0870
     68 CL          0.5022    6.8578    6.8901 Cl     14  UNL14      -0.0870
     69 C          -1.0001    6.1017    6.3327 C.3    14  UNL14       0.1805
     70 H          -1.0001    6.1016    5.2397 H      14  UNL14       0.0806
     71 CL         -1.0962    5.4228   10.1404 Cl     15  UNL15      -0.0870
     72 CL         -2.4059    8.0245   10.1404 Cl     15  UNL15      -0.0870
     73 CL          0.5022    7.8578   10.1403 Cl     15  UNL15      -0.0870
     74 C          -1.0001    7.1017    9.5829 C.3    15  UNL15       0.1805
     75 H          -1.0001    7.1016    8.4899 H      15  UNL15       0.0806
     76 CL          0.1079   -2.7304   -0.1631 Cl     16  UNL16      -0.0870
     77 CL         -1.2018   -0.1694    0.2950 Cl     16  UNL16      -0.0870
     78 CL          1.7063   -0.3334    0.2655 Cl     16  UNL16      -0.0870
     79 C           0.2040   -0.9796   -0.4163 C.3    16  UNL16       0.1805
     80 H           0.2040   -0.7873   -1.4922 H      16  UNL16       0.0806
     81 CL         -1.2538    0.8382    7.3896 Cl     17  UNL17      -0.0870
     82 CL          1.6590    0.8433    7.3896 Cl     17  UNL17      -0.0870
     83 CL          0.2069   -1.6818    7.3896 Cl     17  UNL17      -0.0870
     84 C           0.2041    0.0000    6.8322 C.3    17  UNL17       0.1805
     85 H           0.2040    0.0001    5.7392 H      17  UNL17       0.0806
     86 CL          6.1079   -1.3491    3.5889 Cl     18  UNL18      -0.0870
     87 CL          4.7982   -2.9061    5.6733 Cl     18  UNL18      -0.0870
     88 CL          7.7063   -2.8063    5.5398 Cl     18  UNL18      -0.0870
     89 C           6.2039   -1.9072    5.2676 C.3    18  UNL18       0.1805
     90 H           6.2039   -1.0315    5.9217 H      18  UNL18       0.0806
     91 CL          0.6419   -1.6789    9.3366 Cl     19  UNL19      -0.0870
     92 CL          1.2288    0.9228   10.5075 Cl     19  UNL19      -0.0870
     93 CL         -0.0744    0.7561    7.9077 Cl     19  UNL19      -0.0870
     94 C           0.1005    0.0000    9.5005 C.3    19  UNL19       0.1805
     95 H          -0.8767   -0.0001    9.9903 H      19  UNL19       0.0806
     96 CL          6.1079   -1.6789    9.1404 Cl     20  UNL20      -0.0870
     97 CL          4.7982    0.9228    9.1404 Cl     20  UNL20      -0.0870
     98 CL          7.7063    0.7561    9.1403 Cl     20  UNL20      -0.0870
     99 C           6.2039    0.0000    8.5829 C.3    20  UNL20       0.1805
    100 H           6.2039   -0.0001    7.4899 H      20  UNL20       0.0806
    101 CL          2.1079    1.3720   -0.8606 Cl     21  UNL21      -0.0870
    102 CL          0.7982    3.9736   -0.8606 Cl     21  UNL21      -0.0870
    103 CL          3.7063    3.8069   -0.8607 Cl     21  UNL21      -0.0870
    104 C           2.2040    3.0508   -1.4181 C.3    21  UNL21       0.1805
    105 H           2.2040    3.0507   -2.5111 H      21  UNL21       0.0806
    106 CL         -1.3581    1.3720    4.8361 Cl     22  UNL22      -0.0870
    107 CL         -0.7712    3.9736    6.0070 Cl     22  UNL22      -0.0870
    108 CL         -2.0744    3.8069    3.4072 Cl     22  UNL22      -0.0870
    109 C          -1.8995    3.0508    5.0000 C.3    22  UNL22       0.1805
    110 H          -2.8767    3.0507    5.4898 H      22  UNL22       0.0806
    111 CL          5.2905    3.0934    3.3290 Cl     23  UNL23      -0.0870
    112 CL          2.5334    2.2608    3.7645 Cl     23  UNL23      -0.0870
    113 CL          4.7132    0.3889    4.2436 Cl     23  UNL23      -0.0870
    114 C           4.2105    2.0867    4.3083 C.3    23  UNL23       0.1805
    115 H           4.2725    2.4244    5.3459 H      23  UNL23       0.0806
    116 CL          0.6419    2.3720    7.3366 Cl     24  UNL24      -0.0870
    117 CL          1.2288    4.9736    8.5075 Cl     24  UNL24      -0.0870
    118 CL         -0.0744    4.8069    5.9077 Cl     24  UNL24      -0.0870
    119 C           0.1005    4.0508    7.5005 C.3    24  UNL24       0.1805
    120 H          -0.8767    4.0507    7.9903 H      24  UNL24       0.0806
    121 CL          6.1079   -1.2069    8.5022 Cl     25  UNL25      -0.0870
    122 CL          4.7982    0.1598   10.7160 Cl     25  UNL25      -0.0870
    123 CL          7.7063    0.0723   10.5741 Cl     25  UNL25      -0.0870
    124 C           6.2039    0.1494    9.6379 C.3    25  UNL25       0.1805
    125 H           6.2039    1.0794    9.0637 H      25  UNL25       0.0806
    126 CL          4.1079    5.4228    0.1394 Cl     26  UNL26      -0.0870
    127 CL          2.7982    8.0245    0.1394 Cl     26  UNL26      -0.0870
    128 CL          5.7063    7.8578    0.1393 Cl     26  UNL26      -0.0870
    129 C           4.2039    7.1017   -0.4181 C.3    26  UNL26       0.1805
    130 H           4.2039    7.1016   -1.5111 H      26  UNL26       0.0806
    131 CL          8.1079    5.4228    2.3896 Cl     27  UNL27      -0.0870
    132 CL          6.7982    8.0245    2.3896 Cl     27  UNL27      -0.0870
    133 CL          9.7063    7.8578    2.3896 Cl     27  UNL27      -0.0870
    134 C           8.2039    7.1017    1.8322 C.3    27  UNL27       0.1805
    135 H           8.2039    7.1016    0.7392 H      27  UNL27       0.0806
    136 CL          4.1079    5.4228    3.6399 Cl     28  UNL28      -0.0870
    137 CL          2.7982    8.0245    3.6399 Cl     28  UNL28      -0.0870
    138 CL          5.7063    7.8578    3.6398 Cl     28  UNL28      -0.0870
    139 C           4.2039    7.1017    3.0824 C.3    28  UNL28       0.1805
    140 H           4.2039    7.1016    1.9894 H      28  UNL28       0.0806
    141 CL          8.1079    5.4228    7.8902 Cl     28  UNL28      -0.0870
    142 CL          6.7982    8.0245    7.8902 Cl     28  UNL28      -0.0870
    143 CL          9.7063    7.8578    7.8901 Cl     28  UNL28      -0.0870
    144 C           8.2039    7.1017    7.3327 C.3    28  UNL28       0.1805
    145 H           8.2039    7.1016    6.2397 H      28  UNL28       0.0806
    146 CL          4.1079    5.4228   10.1404 Cl     28  UNL28      -0.0870
    147 CL          2.7982    8.0245   10.1404 Cl     28  UNL28      -0.0870
    148 CL          5.7063    7.8578   10.1403 Cl     28  UNL28      -0.0870
    149 C           4.2039    7.1017    9.5829 C.3    28  UNL28       0.1805
    150 H           4.2039    7.1016    8.4899 H      28  UNL28       0.0806
    151 CL          1.3119   -0.8530    0.0008 Cl     28  UNL28      -0.0870
    152 CL          0.0022   -2.0187   -2.3251 Cl     28  UNL28      -0.0870
    153 CL          2.9103   -1.9441   -2.1760 Cl     28  UNL28      -0.0870
    154 C           1.4080   -2.1036   -1.2503 C.3    28  UNL28       0.1805
    155 H           1.4080   -3.0807   -0.7605 H      28  UNL28       0.0806
    156 CL          3.0564   -1.6789    1.6642 Cl     28  UNL28      -0.0870
    157 CL          3.6432    0.9228    0.4933 Cl     28  UNL28      -0.0870
    158 CL          2.3403    0.7561    3.0932 Cl     28  UNL28      -0.0870
    159 C           3.5117    0.0000    1.9999 C.3    28  UNL28       0.1805
    160 H           4.4889   -0.0001    2.4896 H      28  UNL28       0.0806
    161 CL          7.0564   -2.6789    2.9144 Cl     28  UNL28      -0.0870
    162 CL          7.6432   -0.0772    1.7435 Cl     28  UNL28      -0.0870
    163 CL          6.3403   -0.2439    4.3434 Cl     28  UNL28      -0.0870
    164 C           7.5117   -1.0000    3.2501 C.3    28  UNL28       0.1805
    165 H           8.4889   -1.0001    3.7399 H      28  UNL28       0.0806
    166 CL          1.0564   -1.6789    6.1647 Cl     28  UNL28      -0.0870
    167 CL          1.6432    0.9228    4.9938 Cl     28  UNL28      -0.0870
    168 CL          0.3403    0.7561    7.5937 Cl     28  UNL28      -0.0870
    169 C           1.5117    0.0000    6.5004 C.3    28  UNL28       0.1805
    170 H           2.4889   -0.0001    6.9901 H      28  UNL28       0.0806
    171 CL          3.3119   -0.8530   10.0018 Cl     28  UNL28      -0.0870
    172 CL          2.0022   -2.0187    7.6759 Cl     28  UNL28      -0.0870
    173 CL          4.9103   -1.9441    7.8250 Cl     28  UNL28      -0.0870
    174 C           3.4080   -2.1036    8.7507 C.3    28  UNL28       0.1805
    175 H           3.4080   -3.0807    9.2405 H      28  UNL28       0.0806
    176 CL          1.3119    0.7931   -2.4988 Cl     28  UNL28      -0.0870
    177 CL          0.0022    2.1598   -0.2850 Cl     28  UNL28      -0.0870
    178 CL          2.9103    2.0723   -0.4269 Cl     28  UNL28      -0.0870
    179 C           1.4080    2.1494   -1.3631 C.3    28  UNL28       0.1805
    180 H           1.4080    3.0794   -1.9373 H      28  UNL28       0.0806
    181 CL          5.3119   -1.6280    2.3896 Cl     28  UNL28      -0.0870
    182 CL          4.0022    0.9736    2.3896 Cl     28  UNL28      -0.0870
    183 CL          6.9103    0.8069    2.3896 Cl     28  UNL28      -0.0870
    184 C           5.4080    0.0508    1.8322 C.3    28  UNL28       0.1805
    185 H           5.4080    0.0507    0.7392 H      28  UNL28       0.0806
    186 CL          4.0056    3.4348    6.1514 Cl     28  UNL28      -0.0870
    187 CL          5.0353    2.5134    3.5873 Cl     28  UNL28      -0.0870
    188 CL          6.6528    4.2632    5.2626 Cl     28  UNL28      -0.0870
    189 C           5.4545    2.9582    5.2501 C.3    28  UNL28       0.1805
    190 H           5.8922    2.0846    5.7400 H      28  UNL28       0.0806
    191 CL          3.3119   -1.6280    6.8902 Cl     28  UNL28      -0.0870
    192 CL          2.0022    0.9736    6.8902 Cl     28  UNL28      -0.0870
    193 CL          4.9103    0.8069    6.8901 Cl     28  UNL28      -0.0870
    194 C           3.4080    0.0508    6.3327 C.3    28  UNL28       0.1805
    195 H           3.4080    0.0507    5.2397 H      28  UNL28       0.0806
    196 CL          1.8460    0.3720    8.5869 Cl     28  UNL28      -0.0870
    197 CL          2.4328    2.9736    9.7578 Cl     28  UNL28      -0.0870
    198 CL          1.1297    2.8069    7.1580 Cl     28  UNL28      -0.0870
    199 C           1.3045    2.0508    8.7508 C.3    28  UNL28       0.1805
    200 H           0.3274    2.0507    9.2405 H      28  UNL28       0.0806
    201 CL         11.3119    2.2487    0.0008 Cl     28  UNL28      -0.0870
    202 CL         10.0022    1.0830   -2.3251 Cl     28  UNL28      -0.0870
    203 CL         12.9103    1.1576   -2.1760 Cl     28  UNL28      -0.0870
    204 C          11.4080    0.9981   -1.2503 C.3    28  UNL28       0.1805
    205 H          11.4080    0.0210   -0.7605 H      28  UNL28       0.0806
    206 CL          9.7453    4.5645    0.0709 Cl     28  UNL28      -0.0870
    207 CL          8.6689    1.8594   -0.0182 Cl     28  UNL28      -0.0870
    208 CL         10.7409    2.5397    1.9129 Cl     28  UNL28      -0.0870
    209 C           9.3266    3.1315    1.0248 C.3    28  UNL28       0.1805
    210 H           8.5586    3.4133    1.7497 H      28  UNL28       0.0806
    211 CL         11.3119    7.2487    8.5013 Cl     28  UNL28      -0.0870
    212 CL         10.0022    6.0830    6.1754 Cl     28  UNL28      -0.0870
    213 CL         12.9103    6.1576    6.3245 Cl     28  UNL28      -0.0870
    214 C          11.4080    5.9981    7.2502 C.3    28  UNL28       0.1805
    215 H          11.4080    5.0210    7.7400 H      28  UNL28       0.0806
    216 CL          5.3119    8.2487    6.7516 Cl     28  UNL28      -0.0870
    217 CL          4.0022    7.0830    4.4257 Cl     28  UNL28      -0.0870
    218 CL          6.9103    7.1576    4.5747 Cl     28  UNL28      -0.0870
    219 C           5.4080    6.9981    5.5004 C.3    28  UNL28       0.1805
    220 H           5.4080    6.0210    5.9903 H      28  UNL28       0.0806
    221 CL          9.3119    3.4228   10.1404 Cl     28  UNL28      -0.0870
    222 CL          8.0022    6.0245   10.1404 Cl     28  UNL28      -0.0870
    223 CL         10.9103    5.8578   10.1403 Cl     28  UNL28      -0.0870
    224 C           9.4080    5.1017    9.5829 C.3    28  UNL28       0.1805
    225 H           9.4080    5.1016    8.4899 H      28  UNL28       0.0806
    226 CL          4.5160   -2.7304   -0.1631 Cl     28  UNL28      -0.0870
    227 CL          3.2063   -0.1694    0.2950 Cl     28  UNL28      -0.0870
    228 CL          6.1144   -0.3334    0.2655 Cl     28  UNL28      -0.0870
    229 C           4.6121   -0.9796   -0.4163 C.3    28  UNL28       0.1805
    230 H           4.6121   -0.7873   -1.4922 H      28  UNL28       0.0806
    231 CL          6.5160   -1.6789    5.3896 Cl     28  UNL28      -0.0870
    232 CL          5.2063    0.9228    5.3896 Cl     28  UNL28      -0.0870
    233 CL          8.1144    0.7561    5.3896 Cl     28  UNL28      -0.0870
    234 C           6.6121    0.0000    4.8322 C.3    28  UNL28       0.1805
    235 H           6.6121   -0.0001    3.7392 H      28  UNL28       0.0806
    236 CL         10.4397   -0.6789    7.6161 Cl     28  UNL28      -0.0870
    237 CL          9.1505    1.9228    7.3855 Cl     28  UNL28      -0.0870
    238 CL         12.0132    1.7561    7.8974 Cl     28  UNL28      -0.0870
    239 C          10.6325    1.0000    7.0842 C.3    28  UNL28       0.1805
    240 H          10.8249    0.9999    6.0083 H      28  UNL28       0.0806
    241 CL          6.5160   -0.6789    9.8902 Cl     28  UNL28      -0.0870
    242 CL          5.2063    1.9228    9.8902 Cl     28  UNL28      -0.0870
    243 CL          8.1144    1.7561    9.8901 Cl     28  UNL28      -0.0870
    244 C           6.6121    1.0000    9.3327 C.3    28  UNL28       0.1805
    245 H           6.6121    0.9999    8.2397 H      28  UNL28       0.0806
    246 CL         12.5160   -1.6789    8.1404 Cl     28  UNL28      -0.0870
    247 CL         11.2063    0.9228    8.1404 Cl     28  UNL28      -0.0870
    248 CL         14.1144    0.7561    8.1403 Cl     28  UNL28      -0.0870
    249 C          12.6121    0.0000    7.5829 C.3    28  UNL28       0.1805
    250 H          12.6121   -0.0001    6.4899 H      28  UNL28       0.0806
    251 CL          8.5160    2.3204   -0.6631 Cl     28  UNL28      -0.0870
    252 CL          7.2063    4.8815   -0.2050 Cl     28  UNL28      -0.0870
    253 CL         10.1144    4.7174   -0.2345 Cl     28  UNL28      -0.0870
    254 C           8.6121    4.0712   -0.9163 C.3    28  UNL28       0.1805
    255 H           8.6121    4.2636   -1.9922 H      28  UNL28       0.0806
    256 CL          6.5160    2.3720    5.3896 Cl     28  UNL28      -0.0870
    257 CL          5.2063    4.9736    5.3896 Cl     28  UNL28      -0.0870
    258 CL          8.1144    4.8069    5.3896 Cl     28  UNL28      -0.0870
    259 C           6.6121    4.0508    4.8322 C.3    28  UNL28       0.1805
    260 H           6.6121    4.0507    3.7392 H      28  UNL28       0.0806
    261 CL         11.1892    5.1840    5.6951 Cl     28  UNL28      -0.0870
    262 CL         12.9753    5.8909    3.5054 Cl     28  UNL28      -0.0870
    263 CL         12.6724    7.6895    5.7766 Cl     28  UNL28      -0.0870
    264 C          12.6996    5.9973    5.2523 C.3    28  UNL28       0.1805
    265 H          13.5242    5.4925    5.7620 H      28  UNL28       0.0806
    266 CL          6.5160    4.4083    5.7497 Cl     28  UNL28      -0.0870
    267 CL          5.2063    3.2425    8.0756 Cl     28  UNL28      -0.0870
    268 CL          8.1144    3.3173    7.9267 Cl     28  UNL28      -0.0870
    269 C           6.6121    4.1544    7.5005 C.3    28  UNL28       0.1805
    270 H           6.6121    5.1316    7.9901 H      28  UNL28       0.0806
    271 CL         12.5160   -1.6280   10.1404 Cl     28  UNL28      -0.0870
    272 CL         11.2063    0.9736   10.1404 Cl     28  UNL28      -0.0870
    273 CL         14.1144    0.8069   10.1403 Cl     28  UNL28      -0.0870
    274 C          12.6121    0.0508    9.5829 C.3    28  UNL28       0.1805
    275 H          12.6121    0.0507    8.4899 H      28  UNL28       0.0806
    276 CL          4.5160    6.2487    0.0008 Cl     28  UNL28      -0.0870
    277 CL          3.2063    5.0830   -2.3251 Cl     28  UNL28      -0.0870
    278 CL          6.1144    5.1576   -2.1760 Cl     28  UNL28      -0.0870
    279 C           4.6121    4.9981   -1.2503 C.3    28  UNL28       0.1805
    280 H           4.6121    4.0210   -0.7605 H      28  UNL28       0.0806
    281 CL          6.5160    5.4228    1.3896 Cl     28  UNL28      -0.0870
    282 CL          5.2063    8.0245    1.3896 Cl     28  UNL28      -0.0870
    283 CL          8.1144    7.8578    1.3896 Cl     28  UNL28      -0.0870
    284 C           6.6121    7.1017    0.8322 C.3    28  UNL28       0.1805
    285 H           6.6121    7.1016   -0.2608 H      28  UNL28       0.0806
    286 CL          8.5160    8.2487    4.5013 Cl     28  UNL28      -0.0870
    287 CL          7.2063    7.0830    2.1754 Cl     28  UNL28      -0.0870
    288 CL         10.1144    7.1576    2.3245 Cl     28  UNL28      -0.0870
    289 C           8.6121    6.9981    3.2502 C.3    28  UNL28       0.1805
    290 H           8.6121    6.0210    3.7400 H      28  UNL28       0.0806
    291 CL          3.1543    7.4399    9.8902 Cl     28  UNL28      -0.0870
    292 CL          6.0671    7.4450    9.8902 Cl     28  UNL28      -0.0870
    293 CL          4.6150    4.9199    9.8901 Cl     28  UNL28      -0.0870
    294 C           4.6122    6.6017    9.3327 C.3    28  UNL28       0.1805
    295 H           4.6121    6.6018    8.2397 H      28  UNL28       0.0806
    296 CL         12.5160   -0.6287    7.8379 Cl     28  UNL28      -0.0870
    297 CL         11.2063    1.9323    8.2960 Cl     28  UNL28      -0.0870
    298 CL         14.1144    1.7683    8.2665 Cl     28  UNL28      -0.0870
    299 C          12.6121    1.1221    7.5847 C.3    28  UNL28       0.1805
    300 H          12.6121    1.3144    6.5088 H      28  UNL28       0.0806
    301 CL          6.0997   -0.1955   -0.1059 Cl     28  UNL28      -0.0870
    302 CL          8.7354   -1.4154    0.1160 Cl     28  UNL28      -0.0870
    303 CL          8.2718    0.7077   -1.8237 Cl     28  UNL28      -0.0870
    304 C           7.8461    0.0789   -0.2228 C.3    28  UNL28       0.1805
    305 H           8.1279    0.8242    0.5254 H      28  UNL28       0.0806
    306 CL          7.7200   -0.8530    2.2511 Cl     28  UNL28      -0.0870
    307 CL          6.4103   -2.0187   -0.0748 Cl     28  UNL28      -0.0870
    308 CL          9.3184   -1.9441    0.0742 Cl     28  UNL28      -0.0870
    309 C           7.8161   -2.1036    0.9999 C.3    28  UNL28       0.1805
    310 H           7.8161   -3.0807    1.4898 H      28  UNL28       0.0806
    311 CL         11.7200   -1.3491    3.5889 Cl     28  UNL28      -0.0870
    312 CL         10.4103   -2.9061    5.6733 Cl     28  UNL28      -0.0870
    313 CL         13.3184   -2.8063    5.5398 Cl     28  UNL28      -0.0870
    314 C          11.8161   -1.9072    5.2676 C.3    28  UNL28       0.1805
    315 H          11.8161   -1.0315    5.9217 H      28  UNL28       0.0806
    316 CL         13.7200   -1.3491    4.8392 Cl     28  UNL28      -0.0870
    317 CL         12.4103   -2.9061    6.9236 Cl     28  UNL28      -0.0870
    318 CL         15.3184   -2.8063    6.7901 Cl     28  UNL28      -0.0870
    319 C          13.8161   -1.9072    6.5179 C.3    28  UNL28       0.1805
    320 H          13.8161   -1.0315    7.1719 H      28  UNL28       0.0806
    321 CL          9.7200   -2.6789   10.1404 Cl     28  UNL28      -0.0870
    322 CL          8.4103   -0.0772   10.1404 Cl     28  UNL28      -0.0870
    323 CL         11.3184   -0.2439   10.1403 Cl     28  UNL28      -0.0870
    324 C           9.8161   -1.0000    9.5829 C.3    28  UNL28       0.1805
    325 H           9.8161   -1.0001    8.4899 H      28  UNL28       0.0806
    326 CL          9.7200   -1.6280    0.1394 Cl     28  UNL28      -0.0870
    327 CL          8.4103    0.9736    0.1394 Cl     28  UNL28      -0.0870
    328 CL         11.3184    0.8069    0.1393 Cl     28  UNL28      -0.0870
    329 C           9.8161    0.0508   -0.4181 C.3    28  UNL28       0.1805
    330 H           9.8161    0.0507   -1.5111 H      28  UNL28       0.0806
    331 CL          9.7200   -1.6280    2.3896 Cl     28  UNL28      -0.0870
    332 CL          8.4103    0.9736    2.3896 Cl     28  UNL28      -0.0870
    333 CL         11.3184    0.8069    2.3896 Cl     28  UNL28      -0.0870
    334 C           9.8161    0.0508    1.8322 C.3    28  UNL28       0.1805
    335 H           9.8161    0.0507    0.7392 H      28  UNL28       0.0806
    336 CL         11.3602    0.7171    4.6399 Cl     28  UNL28      -0.0870
    337 CL          9.6211   -1.6195    4.6399 Cl     28  UNL28      -0.0870
    338 CL          8.4671    1.0550    4.6398 Cl     28  UNL28      -0.0870
    339 C           9.8162    0.0507    4.0824 C.3    28  UNL28       0.1805
    340 H           9.8163    0.0508    2.9894 H      28  UNL28       0.0806
    341 CL          9.7200    1.4759    8.1788 Cl     28  UNL28      -0.0870
    342 CL          8.4103    4.0370    7.7208 Cl     28  UNL28      -0.0870
    343 CL         11.3184    3.8729    7.7500 Cl     28  UNL28      -0.0870
    344 C           9.8161    3.0304    7.3345 C.3    28  UNL28       0.1805
    345 H           9.8161    2.8379    6.2585 H      28  UNL28       0.0806
    346 CL         13.4375   -0.0957   10.3894 Cl     28  UNL28      -0.0870
    347 CL         15.0485   -1.0503    8.1583 Cl     28  UNL28      -0.0870
    348 CL         12.4165    0.0974    7.6683 Cl     28  UNL28      -0.0870
    349 C          13.8640    0.1559    8.6883 C.3    28  UNL28       0.1805
    350 H          14.3144    1.1468    8.5897 H      28  UNL28       0.0806
    351 CL          9.7200    5.4228    0.1394 Cl     28  UNL28      -0.0870
    352 CL          8.4103    8.0245    0.1394 Cl     28  UNL28      -0.0870
    353 CL         11.3184    7.8578    0.1393 Cl     28  UNL28      -0.0870
    354 C           9.8161    7.1017   -0.4181 C.3    28  UNL28       0.1805
    355 H           9.8161    7.1016   -1.5111 H      28  UNL28       0.0806
    356 CL          9.7200    5.4228    5.3896 Cl     28  UNL28      -0.0870
    357 CL          8.4103    8.0245    5.3896 Cl     28  UNL28      -0.0870
    358 CL         11.3184    7.8578    5.3896 Cl     28  UNL28      -0.0870
    359 C           9.8161    7.1017    4.8322 C.3    28  UNL28       0.1805
    360 H           9.8161    7.1016    3.7392 H      28  UNL28       0.0806
    361 CL         17.6438    5.4228    5.6161 Cl     28  UNL28      -0.0870
    362 CL         16.3545    8.0245    5.3855 Cl     28  UNL28      -0.0870
    363 CL         19.2172    7.8578    5.8974 Cl     28  UNL28      -0.0870
    364 C          17.8365    7.1017    5.0842 C.3    28  UNL28       0.1805
    365 H          18.0289    7.1016    4.0083 H      28  UNL28       0.0806
    366 CL         15.7200    8.2487    9.7516 Cl     28  UNL28      -0.0870
    367 CL         14.4103    7.0830    7.4257 Cl     28  UNL28      -0.0870
    368 CL         17.3184    7.1576    7.5747 Cl     28  UNL28      -0.0870
    369 C          15.8161    6.9981    8.5004 C.3    28  UNL28       0.1805
    370 H          15.8161    6.0210    8.9903 H      28  UNL28       0.0806
    371 CL          9.7200    5.4228   10.1404 Cl     28  UNL28      -0.0870
    372 CL          8.4103    8.0245   10.1404 Cl     28  UNL28      -0.0870
    373 CL         11.3184    7.8578   10.1403 Cl     28  UNL28      -0.0870
    374 C           9.8161    7.1017    9.5829 C.3    28  UNL28       0.1805
    375 H           9.8161    7.1016    8.4899 H      28  UNL28       0.0806
    376 CL         15.9241   -2.6789   -0.8606 Cl     28  UNL28      -0.0870
    377 CL         14.6144   -0.0772   -0.8606 Cl     28  UNL28      -0.0870
    378 CL         17.5224   -0.2439   -0.8607 Cl     28  UNL28      -0.0870
    379 C          16.0201   -1.0000   -1.4181 C.3    28  UNL28       0.1805
    380 H          16.0201   -1.0001   -2.5111 H      28  UNL28       0.0806
    381 CL         15.9241   -2.6789    2.3896 Cl     28  UNL28      -0.0870
    382 CL         14.6144   -0.0772    2.3896 Cl     28  UNL28      -0.0870
    383 CL         17.5224   -0.2439    2.3896 Cl     28  UNL28      -0.0870
    384 C          16.0201   -1.0000    1.8322 C.3    28  UNL28       0.1805
    385 H          16.0201   -1.0001    0.7392 H      28  UNL28       0.0806
    386 CL         15.9241   -2.6789    4.6399 Cl     28  UNL28      -0.0870
    387 CL         14.6144   -0.0772    4.6399 Cl     28  UNL28      -0.0870
    388 CL         17.5224   -0.2439    4.6398 Cl     28  UNL28      -0.0870
    389 C          16.0201   -1.0000    4.0824 C.3    28  UNL28       0.1805
    390 H          16.0201   -1.0001    2.9894 H      28  UNL28       0.0806
    391 CL         15.9241   -1.6789    6.8902 Cl     28  UNL28      -0.0870
    392 CL         14.6144    0.9228    6.8902 Cl     28  UNL28      -0.0870
    393 CL         17.5224    0.7561    6.8901 Cl     28  UNL28      -0.0870
    394 C          16.0201    0.0000    6.3327 C.3    28  UNL28       0.1805
    395 H          16.0201   -0.0001    5.2397 H      28  UNL28       0.0806
    396 CL         17.4581   -2.6789    9.0869 Cl     28  UNL28      -0.0870
    397 CL         18.0450   -0.0772   10.2578 Cl     28  UNL28      -0.0870
    398 CL         16.7418   -0.2439    7.6580 Cl     28  UNL28      -0.0870
    399 C          16.9167   -1.0000    9.2508 C.3    28  UNL28       0.1805
    400 H          15.9395   -1.0001    9.7405 H      28  UNL28       0.0806
    401 CL         15.9241    0.3720    0.1394 Cl     28  UNL28      -0.0870
    402 CL         14.6144    2.9736    0.1394 Cl     28  UNL28      -0.0870
    403 CL         17.5224    2.8069    0.1393 Cl     28  UNL28      -0.0870
    404 C          16.0201    2.0508   -0.4181 C.3    28  UNL28       0.1805
    405 H          16.0201    2.0507   -1.5111 H      28  UNL28       0.0806
    406 CL         15.9241    1.3720    2.3896 Cl     28  UNL28      -0.0870
    407 CL         14.6144    3.9736    2.3896 Cl     28  UNL28      -0.0870
    408 CL         17.5224    3.8069    2.3896 Cl     28  UNL28      -0.0870
    409 C          16.0201    3.0508    1.8322 C.3    28  UNL28       0.1805
    410 H          16.0201    3.0507    0.7392 H      28  UNL28       0.0806
    411 CL         15.9241    1.3720    4.6399 Cl     28  UNL28      -0.0870
    412 CL         14.6144    3.9736    4.6399 Cl     28  UNL28      -0.0870
    413 CL         17.5224    3.8069    4.6398 Cl     28  UNL28      -0.0870
    414 C          16.0201    3.0508    4.0824 C.3    28  UNL28       0.1805
    415 H          16.0201    3.0507    2.9894 H      28  UNL28       0.0806
    416 CL         15.9241    1.3720    6.8902 Cl     28  UNL28      -0.0870
    417 CL         14.6144    3.9736    6.8902 Cl     28  UNL28      -0.0870
    418 CL         17.5224    3.8069    6.8901 Cl     28  UNL28      -0.0870
    419 C          16.0201    3.0508    6.3327 C.3    28  UNL28       0.1805
    420 H          16.0201    3.0507    5.2397 H      28  UNL28       0.0806
    421 CL         15.9241    1.3720    9.1404 Cl     28  UNL28      -0.0870
    422 CL         14.6144    3.9736    9.1404 Cl     28  UNL28      -0.0870
    423 CL         17.5224    3.8069    9.1403 Cl     28  UNL28      -0.0870
    424 C          16.0201    3.0508    8.5829 C.3    28  UNL28       0.1805
    425 H          16.0201    3.0507    7.4899 H      28  UNL28       0.0806
    426 CL         15.9241    5.4228    0.1394 Cl     28  UNL28      -0.0870
    427 CL         14.6144    8.0245    0.1394 Cl     28  UNL28      -0.0870
    428 CL         17.5224    7.8578    0.1393 Cl     28  UNL28      -0.0870
    429 C          16.0201    7.1017   -0.4181 C.3    28  UNL28       0.1805
    430 H          16.0201    7.1016   -1.5111 H      28  UNL28       0.0806
    431 CL         15.9241    5.4228    2.3896 Cl     28  UNL28      -0.0870
    432 CL         14.6144    8.0245    2.3896 Cl     28  UNL28      -0.0870
    433 CL         17.5224    7.8578    2.3896 Cl     28  UNL28      -0.0870
    434 C          16.0201    7.1017    1.8322 C.3    28  UNL28       0.1805
    435 H          16.0201    7.1016    0.7392 H      28  UNL28       0.0806
    436 CL         15.9241    4.4228    4.6399 Cl     28  UNL28      -0.0870
    437 CL         14.6144    7.0245    4.6399 Cl     28  UNL28      -0.0870
    438 CL         17.5224    6.8578    4.6398 Cl     28  UNL28      -0.0870
    439 C          16.0201    6.1017    4.0824 C.3    28  UNL28       0.1805
    440 H          16.0201    6.1016    2.9894 H      28  UNL28       0.0806
    441 CL         16.9240    4.4228    6.8902 Cl     28  UNL28      -0.0870
    442 CL         15.6144    7.0245    6.8902 Cl     28  UNL28      -0.0870
    443 CL         18.5224    6.8578    6.8901 Cl     28  UNL28      -0.0870
    444 C          17.0201    6.1017    6.3327 C.3    28  UNL28       0.1805
    445 H          17.0201    6.1016    5.2397 H      28  UNL28       0.0806
    446 CL         16.9240    8.2487   10.5018 Cl     28  UNL28      -0.0870
    447 CL         15.6144    7.0830    8.1759 Cl     28  UNL28      -0.0870
    448 CL         18.5224    7.1576    8.3250 Cl     28  UNL28      -0.0870
    449 C          17.0201    6.9981    9.2507 C.3    28  UNL28       0.1805
    450 H          17.0201    6.0210    9.7405 H      28  UNL28       0.0806
@<TRIPOS>BOND
     1     1     4    1
     2     2     4    1
     3     3     4    1
     4     4     5    1
     5     6     9    1
     6     7     9    1
     7     8     9    1
     8     9    10    1
     9    11    14    1
    10    12    14    1
    11    13    14    1
    12    14    15    1
    13    16    19    1
    14    17    19    1
    15    18    19    1
    16    19    20    1
    17    21    24    1
    18    22    24    1
    19    23    24    1
    20    24    25    1
    21    26    29    1
    22    27    29    1
    23    28    29    1
    24    29    30    1
    25    31    34    1
    26    32    34    1
    27    33    34    1
    28    34    35    1
    29    36    39    1
    30    37    39    1
    31    38    39    1
    32    39    40    1
    33    41    44    1
    34    42    44    1
    35    43    44    1
    36    44    45    1
    37    46    49    1
    38    47    49    1
    39    48    49    1
    40    49    50    1
    41    51    54    1
    42    52    54    1
    43    53    54    1
    44    54    55    1
    45    56    59    1
    46    57    59    1
    47    58    59    1
    48    59    60    1
    49    61    64    1
    50    62    64    1
    51    63    64    1
    52    64    65    1
    53    66    69    1
    54    67    69    1
    55    68    69    1
    56    69    70    1
    57    71    74    1
    58    72    74    1
    59    73    74    1
    60    74    75    1
    61    76    79    1
    62    77    79    1
    63    78    79    1
    64    79    80    1
    65    81    84    1
    66    82    84    1
    67    83    84    1
    68    84    85    1
    69    86    89    1
    70    87    89    1
    71    88    89    1
    72    89    90    1
    73    91    94    1
    74    92    94    1
    75    93    94    1
    76    94    95    1
    77    96    99    1
    78    97    99    1
    79    98    99    1
    80    99   100    1
    81   101   104    1
    82   102   104    1
    83   103   104    1
    84   104   105    1
    85   106   109    1
    86   107   109    1
    87   108   109    1
    88   109   110    1
    89   111   114    1
    90   112   114    1
    91   113   114    1
    92   114   115    1
    93   116   119    1
    94   117   119    1
    95   118   119    1
    96   119   120    1
    97   121   124    1
    98   122   124    1
    99   123   124    1
   100   124   125    1
   101   126   129    1
   102   127   129    1
   103   128   129    1
   104   129   130    1
   105   131   134    1
   106   132   134    1
   107   133   134    1
   108   134   135    1
   109   136   139    1
   110   137   139    1
   111   138   139    1
   112   139   140    1
   113   141   144    1
   114   142   144    1
   115   143   144    1
   116   144   145    1
   117   146   149    1
   118   147   149    1
   119   148   149    1
   120   149   150    1
   121   151   154    1
   122   152   154    1
   123   153   154    1
   124   154   155    1
   125   156   159    1
   126   157   159    1
   127   158   159    1
   128   159   160    1
   129   161   164    1
   130   162   164    1
   131   163   164    1
   132   164   165    1
   133   166   169    1
   134   167   169    1
   135   168   169    1
   136   169   170    1
   137   171   174    1
   138   172   174    1
   139   173   174    1
   140   174   175    1
   141   176   179    1
   142   177   179    1
   143   178   179    1
   144   179   180    1
   145   181   184    1
   146   182   184    1
   147   183   184    1
   148   184   185    1
   149   186   189    1
   150   187   189    1
   151   188   189    1
   152   189   190    1
   153   191   194    1
   154   192   194    1
   155   193   194    1
   156   194   195    1
   157   196   199    1
   158   197   199    1
   159   198   199    1
   160   199   200    1
   161   201   204    1
   162   202   204    1
   163   203   204    1
   164   204   205    1
   165   206   209    1
   166   207   209    1
   167   208   209    1
   168   209   210    1
   169   211   214    1
   170   212   214    1
   171   213   214    1
   172   214   215    1
   173   216   219    1
   174   217   219    1
   175   218   219    1
   176   219   220    1
   177   221   224    1
   178   222   224    1
   179   223   224    1
   180   224   225    1
   181   226   229    1
   182   227   229    1
   183   228   229    1
   184   229   230    1
   185   231   234    1
   186   232   234    1
   187   233   234    1
   188   234   235    1
   189   236   239    1
   190   237   239    1
   191   238   239    1
   192   239   240    1
   193   241   244    1
   194   242   244    1
   195   243   244    1
   196   244   245    1
   197   246   249    1
   198   247   249    1
   199   248   249    1
   200   249   250    1
   201   251   254    1
   202   252   254    1
   203   253   254    1
   204   254   255    1
   205   256   259    1
   206   257   259    1
   207   258   259    1
   208   259   260    1
   209   261   264    1
   210   262   264    1
   211   263   264    1
   212   264   265    1
   213   266   269    1
   214   267   269    1
   215   268   269    1
   216   269   270    1
   217   271   274    1
   218   272   274    1
   219   273   274    1
   220   274   275    1
   221   276   279    1
   222   277   279    1
   223   278   279    1
   224   279   280    1
   225   281   284    1
   226   282   284    1
   227   283   284    1
   228   284   285    1
   229   286   289    1
   230   287   289    1
   231   288   289    1
   232   289   290    1
   233   291   294    1
   234   292   294    1
   235   293   294    1
   236   294   295    1
   237   296   299    1
   238   297   299    1
   239   298   299    1
   240   299   300    1
   241   301   304    1
   242   302   304    1
   243   303   304    1
   244   304   305    1
   245   306   309    1
   246   307   309    1
   247   308   309    1
   248   309   310    1
   249   311   314    1
   250   312   314    1
   251   313   314    1
   252   314   315    1
   253   316   319    1
   254   317   319    1
   255   318   319    1
   256   319   320    1
   257   321   324    1
   258   322   324    1
   259   323   324    1
   260   324   325    1
   261   326   329    1
   262   327   329    1
   263   328   329    1
   264   329   330    1
   265   331   334    1
   266   332   334    1
   267   333   334    1
   268   334   335    1
   269   336   339    1
   270   337   339    1
   271   338   339    1
   272   339   340    1
   273   341   344    1
   274   342   344    1
   275   343   344    1
   276   344   345    1
   277   346   349    1
   278   347   349    1
   279   348   349    1
   280   349   350    1
   281   351   354    1
   282   352   354    1
   283   353   354    1
   284   354   355    1
   285   356   359    1
   286   357   359    1
   287   358   359    1
   288   359   360    1
   289   361   364    1
   290   362   364    1
   291   363   364    1
   292   364   365    1
   293   366   369    1
   294   367   369    1
   295   368   369    1
   296   369   370    1
   297   371   374    1
   298   372   374    1
   299   373   374    1
   300   374   375    1
   301   376   379    1
   302   377   379    1
   303   378   379    1
   304   379   380    1
   305   381   384    1
   306   382   384    1
   307   383   384    1
   308   384   385    1
   309   386   389    1
   310   387   389    1
   311   388   389    1
   312   389   390    1
   313   391   394    1
   314   392   394    1
   315   393   394    1
   316   394   395    1
   317   396   399    1
   318   397   399    1
   319   398   399    1
   320   399   400    1
   321   401   404    1
   322   402   404    1
   323   403   404    1
   324   404   405    1
   325   406   409    1
   326   407   409    1
   327   408   409    1
   328   409   410    1
   329   411   414    1
   330   412   414    1
   331   413   414    1
   332   414   415    1
   333   416   419    1
   334   417   419    1
   335   418   419    1
   336   419   420    1
   337   421   424    1
   338   422   424    1
   339   423   424    1
   340   424   425    1
   341   426   429    1
   342   427   429    1
   343   428   429    1
   344   429   430    1
   345   431   434    1
   346   432   434    1
   347   433   434    1
   348   434   435    1
   349   436   439    1
   350   437   439    1
   351   438   439    1
   352   439   440    1
   353   441   444    1
   354   442   444    1
   355   443   444    1
   356   444   445    1
   357   446   449    1
   358   447   449    1
   359   448   449    1
   360   449   450    1
