@<TRIPOS>MOLECULE
*****
 95 76 0 0 0
SMALL
GASTEIGER

@<TRIPOS>ATOM
      1 CL          1.1037   -1.4893    1.5795 Cl      1  UNL1       -0.0870
      2 CL         -1.7898   -1.1997    1.4118 Cl      1  UNL1       -0.0870
      3 CL         -0.6167   -2.9769    3.3993 Cl      1  UNL1       -0.0870
      4 C          -0.4133   -1.4672    2.4945 C.3     1  UNL1        0.1805
      5 H          -0.3719   -0.6410    3.2089 H       1  UNL1        0.0806
      6 CL          1.0306    4.0976    0.1699 Cl      2  UNL2       -0.0870
      7 CL          1.1786    1.2792    0.8902 Cl      2  UNL2       -0.0870
      8 CL         -1.1012    2.2780   -0.6229 Cl      2  UNL2       -0.0870
      9 C           0.6384    2.4440   -0.3305 C.3     2  UNL2        0.1805
     10 H           1.1657    2.2331   -1.2644 H       2  UNL2        0.0806
     11 CL         -1.2202    1.3837    2.2218 Cl      3  UNL3       -0.0870
     12 CL         -3.0362    3.5470    2.9335 Cl      3  UNL3       -0.0870
     13 CL         -0.1872    4.0756    2.6354 Cl      3  UNL3       -0.0870
     14 C          -1.5588    3.1148    2.0565 C.3     3  UNL3        0.1805
     15 H          -1.7106    3.3358    0.9969 H       3  UNL3        0.0806
     16 CL         -0.8829    8.7652   -0.4763 Cl      4  UNL4       -0.0870
     17 CL         -2.7446    8.0513   -2.5997 Cl      4  UNL4       -0.0870
     18 CL         -0.5862    6.2316   -1.8822 Cl      4  UNL4       -0.0870
     19 C          -1.7367    7.4364   -1.2788 C.3     4  UNL4        0.1805
     20 H          -2.3876    6.9533   -0.5456 H       4  UNL4        0.0806
     21 CL         -2.4936    6.1039    3.3488 Cl      5  UNL5       -0.0870
     22 CL         -2.5899    8.3640    1.5139 Cl      5  UNL5       -0.0870
     23 CL         -0.3709    6.4810    1.3903 Cl      5  UNL5       -0.0870
     24 C          -2.1015    6.6732    1.7176 C.3     5  UNL5        0.1805
     25 H          -2.6571    6.0657    0.9986 H       5  UNL5        0.0806
     26 CL          0.8702   12.7640   -1.5542 Cl      6  UNL6       -0.0870
     27 CL         -1.6003   14.3027   -1.6688 Cl      6  UNL6       -0.0870
     28 CL          0.4030   14.9127    0.3560 Cl      6  UNL6       -0.0870
     29 C           0.1326   14.3552   -1.3040 C.3     6  UNL6        0.1805
     30 H           0.6065   15.0651   -1.9867 H       6  UNL6        0.0806
     31 CL          2.7396    3.6316    2.4854 Cl      7  UNL7       -0.0870
     32 CL          5.4748    2.6301    2.4854 Cl      7  UNL7       -0.0870
     33 CL          3.2397    0.7622    2.4853 Cl      7  UNL7       -0.0870
     34 C           3.8181    2.3414    1.9279 C.3     7  UNL7        0.1805
     35 H           3.8181    2.3415    0.8349 H       7  UNL7        0.0806
     36 CL          2.6095    6.5545    0.0794 Cl      8  UNL8       -0.0870
     37 CL          3.2498    8.4101    2.2314 Cl      8  UNL8       -0.0870
     38 CL          2.3510    9.4242   -0.3472 Cl      8  UNL8       -0.0870
     39 C           2.2082    8.1081    0.8304 C.3     8  UNL8        0.1805
     40 H           1.1718    8.0659    1.1750 H       8  UNL8        0.0806
     41 CL          5.0515   17.4901    2.3052 Cl      9  UNL9       -0.0870
     42 CL          3.5537   14.9919    2.3105 Cl      9  UNL9       -0.0870
     43 CL          2.3546   17.4067    1.2079 Cl      9  UNL9       -0.0870
     44 C           3.8613   16.5037    1.4396 C.3     9  UNL9        0.1805
     45 H           4.2692   16.2572    0.4559 H       9  UNL9        0.0806
     46 CL          9.2234   -2.9466   -2.4857 Cl     10  UNL10      -0.0870
     47 CL          9.5782   -0.3250   -1.2670 Cl     10  UNL10      -0.0870
     48 CL          7.2830   -1.9675   -0.5466 Cl     10  UNL10      -0.0870
     49 C           8.9902   -1.9779   -1.0208 C.3    10  UNL10       0.1805
     50 H           9.5688   -2.4321   -0.2125 H      10  UNL10       0.0806
     51 CL          5.4784    3.5989   -0.4580 Cl     11  UNL11      -0.0870
     52 CL          8.2307    2.8421    0.1217 Cl     11  UNL11      -0.0870
     53 CL          6.1245    0.8307    0.1773 Cl     11  UNL11      -0.0870
     54 C           6.6965    2.3197   -0.5940 C.3    11  UNL11       0.1805
     55 H           6.8636    2.1154   -1.6546 H      11  UNL11       0.0806
     56 CL          5.9725    7.6848   -0.4149 Cl     12  UNL12      -0.0870
     57 CL          8.8401    8.1958   -0.4149 Cl     12  UNL12      -0.0870
     58 CL          7.8487    5.4568   -0.4150 Cl     12  UNL12      -0.0870
     59 C           7.5538    7.1126   -0.9724 C.3    12  UNL12       0.1805
     60 H           7.5537    7.1127   -2.0654 H      12  UNL12       0.0806
     61 CL          6.0041   13.2953   -0.4274 Cl     13  UNL13      -0.0870
     62 CL          7.4714   10.7832   -0.2849 Cl     13  UNL13      -0.0870
     63 CL          8.5513   13.0160   -1.8123 Cl     13  UNL13      -0.0870
     64 C           7.6092   12.5464   -0.3871 C.3    13  UNL13       0.1805
     65 H           8.1326   12.9028    0.5039 H      13  UNL13       0.0806
     66 CL          6.8266   14.6113    2.9532 Cl     14  UNL14      -0.0870
     67 CL          8.0109   17.0148    1.8109 Cl     14  UNL14      -0.0870
     68 CL          9.6422   14.6343    2.2075 Cl     14  UNL14      -0.0870
     69 C           8.0259   15.2432    1.8125 C.3    14  UNL14       0.1805
     70 H           7.7631   14.8961    0.8099 H      14  UNL14       0.0806
     71 CL         13.8370   -1.0024   -2.4954 Cl     15  UNL15      -0.0870
     72 CL         12.1951   -3.2144   -1.5490 Cl     15  UNL15      -0.0870
     73 CL         15.0861   -3.2938   -1.2017 Cl     15  UNL15      -0.0870
     74 C          13.6534   -2.2527   -1.2536 C.3    15  UNL15       0.1805
     75 H          13.5504   -1.7608   -0.2830 H      15  UNL15       0.0806
     76 CL         12.1415    0.1687    0.7174 Cl     16  UNL16      -0.0870
     77 CL         12.0075    3.0335    1.2263 Cl     16  UNL16      -0.0870
     78 CL         14.5944    1.7152    0.9920 Cl     16  UNL16      -0.0870
     79 C          12.9143    1.7367    0.4297 C.3    16  UNL16       0.1805
     80 H          12.9143    1.9277   -0.6465 H      16  UNL16       0.0806
     81 CL         14.9279    4.7374    0.7964 Cl     17  UNL17      -0.0870
     82 CL         14.0439    7.4343    0.1411 Cl     17  UNL17      -0.0870
     83 CL         13.0229    5.1604   -1.3661 Cl     17  UNL17      -0.0870
     84 C          13.5768    5.7272    0.2186 C.3    17  UNL17       0.1805
     85 H          12.7506    5.6284    0.9273 H      17  UNL17       0.0806
     86 CL         10.7240   12.0905    0.7038 Cl     18  UNL18      -0.0870
     87 CL         13.5480   11.5828    0.2022 Cl     18  UNL18      -0.0870
     88 CL         11.7029    9.3527    0.5298 Cl     18  UNL18      -0.0870
     89 C          11.8942   11.0088   -0.0703 C.3    18  UNL18       0.1805
     90 H          11.7030   11.0089   -1.1464 H      18  UNL18       0.0806
     91 CL         14.1624   16.2031    2.0001 Cl     19  UNL19      -0.0870
     92 CL         12.6406   14.1679    0.5766 Cl     19  UNL19      -0.0870
     93 CL         15.5177   13.8641    0.9156 Cl     19  UNL19      -0.0870
     94 C          14.0216   14.4735    1.6434 C.3    19  UNL19       0.1805
     95 H          13.8547   13.9411    2.5833 H      19  UNL19       0.0806
@<TRIPOS>BOND
     1     1     4    1
     2     2     4    1
     3     3     4    1
     4     4     5    1
     5     6     9    1
     6     7     9    1
     7     8     9    1
     8     9    10    1
     9    11    14    1
    10    12    14    1
    11    13    14    1
    12    14    15    1
    13    16    19    1
    14    17    19    1
    15    18    19    1
    16    19    20    1
    17    21    24    1
    18    22    24    1
    19    23    24    1
    20    24    25    1
    21    26    29    1
    22    27    29    1
    23    28    29    1
    24    29    30    1
    25    31    34    1
    26    32    34    1
    27    33    34    1
    28    34    35    1
    29    36    39    1
    30    37    39    1
    31    38    39    1
    32    39    40    1
    33    41    44    1
    34    42    44    1
    35    43    44    1
    36    44    45    1
    37    46    49    1
    38    47    49    1
    39    48    49    1
    40    49    50    1
    41    51    54    1
    42    52    54    1
    43    53    54    1
    44    54    55    1
    45    56    59    1
    46    57    59    1
    47    58    59    1
    48    59    60    1
    49    61    64    1
    50    62    64    1
    51    63    64    1
    52    64    65    1
    53    66    69    1
    54    67    69    1
    55    68    69    1
    56    69    70    1
    57    71    74    1
    58    72    74    1
    59    73    74    1
    60    74    75    1
    61    76    79    1
    62    77    79    1
    63    78    79    1
    64    79    80    1
    65    81    84    1
    66    82    84    1
    67    83    84    1
    68    84    85    1
    69    86    89    1
    70    87    89    1
    71    88    89    1
    72    89    90    1
    73    91    94    1
    74    92    94    1
    75    93    94    1
    76    94    95    1
