@<TRIPOS>MOLECULE
*****
 975 780 0 0 0
SMALL
GASTEIGER

@<TRIPOS>ATOM
      1 CL          0.6704    1.5692    0.5420 Cl      1  UNL1       -0.0870
      2 CL          0.4070    3.7283   -1.3952 Cl      1  UNL1       -0.0870
      3 CL         -1.4883    1.5164   -1.4128 Cl      1  UNL1       -0.0870
      4 C          -0.4648    2.5496   -0.4007 C.3     1  UNL1        0.1805
      5 H          -1.1079    3.0950    0.2948 H       1  UNL1        0.0806
      6 CL          3.7109    0.2206    3.6456 Cl      2  UNL2       -0.0870
      7 CL          1.2723    1.6594    4.3290 Cl      2  UNL2       -0.0870
      8 CL          3.8145    3.0762    4.2100 Cl      2  UNL2       -0.0870
      9 C           2.8460    1.7618    3.5219 C.3     2  UNL2        0.1805
     10 H           2.6766    1.9771    2.4638 H       2  UNL2        0.0806
     11 CL          4.2783    0.8064    7.0102 Cl      3  UNL3       -0.0870
     12 CL          1.5291    1.3485    7.8054 Cl      3  UNL3       -0.0870
     13 CL          2.3160   -1.3461    7.0276 Cl      3  UNL3       -0.0870
     14 C           2.8383    0.1549    7.8108 C.3     3  UNL3        0.1805
     15 H           3.0944   -0.0701    8.8493 H       3  UNL3        0.0806
     16 CL          3.8718    3.2761   11.7921 Cl      4  UNL4       -0.0870
     17 CL          3.5898    0.3824   11.6152 Cl      4  UNL4       -0.0870
     18 CL          1.2340    2.0556   11.9830 Cl      4  UNL4       -0.0870
     19 C           2.8403    1.9442   11.2437 C.3     4  UNL4        0.1805
     20 H           2.7261    2.0217   10.1595 H       4  UNL4        0.0806
     21 CL          3.8322    3.0972   15.7946 Cl      5  UNL5       -0.0870
     22 CL          3.5510    0.1989   15.7221 Cl      5  UNL5       -0.0870
     23 CL          1.1907    1.8963   15.5414 Cl      5  UNL5       -0.0870
     24 C           2.9071    1.7398   15.1308 C.3     5  UNL5        0.1805
     25 H           3.0034    1.7578   14.0422 H       5  UNL5        0.0806
     26 CL          3.9000    3.1063   19.2340 Cl      6  UNL6       -0.0870
     27 CL          3.3081    0.3121   19.8051 Cl      6  UNL6       -0.0870
     28 CL          1.1411    2.2482   19.6037 Cl      6  UNL6       -0.0870
     29 C           2.7420    1.7859   19.0013 C.3     6  UNL6        0.1805
     30 H           2.6612    1.5841   17.9301 H       6  UNL6        0.0806
     31 CL          4.0016    2.6478   24.4108 Cl      7  UNL7       -0.0870
     32 CL          3.4607   -0.2088   24.2339 Cl      7  UNL7       -0.0870
     33 CL          1.2648    1.6693   24.6017 Cl      7  UNL7       -0.0870
     34 C           2.8546    1.4139   23.8624 C.3     7  UNL7        0.1805
     35 H           2.7477    1.5014   22.7782 H       7  UNL7        0.0806
     36 CL          4.7179    2.5729   27.8068 Cl      8  UNL8       -0.0870
     37 CL          3.3284    0.2163   28.8065 Cl      8  UNL8       -0.0870
     38 CL          1.8158    2.5894   28.0549 Cl      8  UNL8       -0.0870
     39 C           3.2418    1.5988   27.7021 C.3     8  UNL8        0.1805
     40 H           3.1524    1.2186   26.6813 H       8  UNL8        0.0806
     41 CL         -0.0020   -1.0127   32.7376 Cl      9  UNL9       -0.0870
     42 CL          0.1091    0.3610   30.1715 Cl      9  UNL9       -0.0870
     43 CL         -2.4415    0.0358   31.5403 Cl      9  UNL9       -0.0870
     44 C          -0.6987    0.2797   31.7462 C.3     9  UNL9        0.1805
     45 H          -0.5431    1.2307   32.2621 H       9  UNL9        0.0806
     46 CL          2.1557    7.0933   -0.6166 Cl     10  UNL10      -0.0870
     47 CL          4.1641    5.3553    0.5794 Cl     10  UNL10      -0.0870
     48 CL          4.9807    7.5344   -1.1727 Cl     10  UNL10      -0.0870
     49 C           3.8001    7.0020    0.0365 C.3    10  UNL10       0.1805
     50 H           3.8653    7.6707    0.8985 H      10  UNL10       0.0806
     51 CL         -0.2554    5.8384    3.9883 Cl     11  UNL11      -0.0870
     52 CL          2.5752    6.2561    3.4429 Cl     11  UNL11      -0.0870
     53 CL          0.5949    8.0907    2.3486 Cl     11  UNL11      -0.0870
     54 C           1.0128    7.0453    3.7167 C.3    11  UNL11       0.1805
     55 H           1.0936    7.6667    4.6123 H      11  UNL11       0.0806
     56 CL          0.8684    8.0140    7.5513 Cl     12  UNL12      -0.0870
     57 CL          3.5832    7.0133    7.8870 Cl     12  UNL12      -0.0870
     58 CL          1.3400    5.1555    7.8528 Cl     12  UNL12      -0.0870
     59 C           1.9805    6.6776    7.2107 C.3    12  UNL12       0.1805
     60 H           2.0783    6.5794    6.1265 H      12  UNL12       0.0806
     61 CL          0.6494    8.3244   11.7322 Cl     13  UNL13      -0.0870
     62 CL          3.3562    7.3020   11.3972 Cl     13  UNL13      -0.0870
     63 CL          1.0979    5.4624   11.4297 Cl     13  UNL13      -0.0870
     64 C           1.6520    7.0804   10.9667 C.3    13  UNL13       0.1805
     65 H           1.5553    7.1799    9.8826 H      13  UNL13       0.0806
     66 CL          0.7658    8.3058   15.2322 Cl     14  UNL14      -0.0870
     67 CL          3.4997    7.3011   15.2322 Cl     14  UNL14      -0.0870
     68 CL          1.2625    5.4357   15.2321 Cl     14  UNL14      -0.0870
     69 C           1.8428    7.0143   14.6747 C.3    14  UNL14       0.1805
     70 H           1.8427    7.0144   13.5817 H      14  UNL14       0.0806
     71 CL          0.7668    8.3545   19.1349 Cl     15  UNL15      -0.0870
     72 CL          3.5007    7.3538   19.0446 Cl     15  UNL15      -0.0870
     73 CL          1.2635    5.4961   18.8768 Cl     15  UNL15      -0.0870
     74 C           1.8438    7.1183   18.4635 C.3    15  UNL15       0.1805
     75 H           1.8437    7.2166   17.3750 H      15  UNL15       0.0806
     76 CL          0.2694    8.0504   22.8969 Cl     16  UNL16      -0.0870
     77 CL          3.1391    7.5513   22.8969 Cl     16  UNL16      -0.0870
     78 CL          1.2719    5.3156   22.8968 Cl     16  UNL16      -0.0870
     79 C           1.5602    6.9726   22.3394 C.3    16  UNL16       0.1805
     80 H           1.5602    6.9726   21.2464 H      16  UNL16       0.0806
     81 CL          1.5648    8.4995   27.6788 Cl     17  UNL17      -0.0870
     82 CL          3.2199    6.1290   27.3248 Cl     17  UNL17      -0.0870
     83 CL          0.3837    6.0364   26.6676 Cl     17  UNL17      -0.0870
     84 C           1.8386    7.0470   26.7021 C.3    17  UNL17       0.1805
     85 H           2.0654    7.3583   25.6791 H      17  UNL17       0.0806
     86 CL         -0.3446    4.2084   31.9594 Cl     18  UNL18      -0.0870
     87 CL          2.2874    3.0315   32.3735 Cl     18  UNL18      -0.0870
     88 CL          1.9323    5.1492   30.4054 Cl     18  UNL18      -0.0870
     89 C           1.4009    4.5115   31.9707 C.3    18  UNL18       0.1805
     90 H           1.6149    5.2602   32.7376 H      18  UNL18       0.0806
     91 CL         -0.0527   13.4324    0.8895 Cl     19  UNL19      -0.0870
     92 CL          2.5066   12.9038   -0.3969 Cl     19  UNL19      -0.0870
     93 CL          0.7147   10.6981    0.2425 Cl     19  UNL19      -0.0870
     94 C           0.8154   12.3956   -0.2552 C.3    19  UNL19       0.1805
     95 H           0.3429   12.4951   -1.2358 H      19  UNL19       0.0806
     96 CL          1.9633   13.6319    3.9295 Cl     20  UNL20      -0.0870
     97 CL          3.3645   11.0784    3.9388 Cl     20  UNL20      -0.0870
     98 CL          0.4536   11.1422    3.8512 Cl     20  UNL20      -0.0870
     99 C           1.9442   11.9581    3.3493 C.3    20  UNL20       0.1805
    100 H           1.9773   11.9724    2.2569 H      20  UNL20       0.0806
    101 CL          3.1980   10.6162    7.8662 Cl     21  UNL21      -0.0870
    102 CL          0.8912   12.3570    8.2306 Cl     21  UNL21      -0.0870
    103 CL          3.5595   13.5032    8.0038 Cl     21  UNL21      -0.0870
    104 C           2.4878   12.1928    7.4805 C.3    21  UNL21       0.1805
    105 H           2.3670   12.2596    6.3963 H      21  UNL21       0.0806
    106 CL          3.4246   13.6546   11.7545 Cl     22  UNL22      -0.0870
    107 CL          3.8955   10.7912   12.0056 Cl     22  UNL22      -0.0870
    108 CL          1.1726   11.8083   11.8160 Cl     22  UNL22      -0.0870
    109 C           2.8528   12.0396   11.3035 C.3    22  UNL22       0.1805
    110 H           2.8955   11.9512   10.2149 H      22  UNL22       0.0806
    111 CL          3.8252   13.6053   15.8423 Cl     23  UNL23      -0.0870
    112 CL          3.5153   10.7200   15.5912 Cl     23  UNL23      -0.0870
    113 CL          1.1623   12.4266   15.7806 Cl     23  UNL23      -0.0870
    114 C           2.8254   12.2999   15.1828 C.3    23  UNL23       0.1805
    115 H           2.8079   12.3966   14.0943 H      23  UNL23       0.0806
    116 CL          3.9631   13.6854   19.3326 Cl     24  UNL24      -0.0870
    117 CL          3.6480   10.8470   19.9055 Cl     24  UNL24      -0.0870
    118 CL          1.3018   12.5617   19.7056 Cl     24  UNL24      -0.0870
    119 C           2.9396   12.2579   19.1017 C.3    24  UNL24       0.1805
    120 H           2.8779   12.0486   18.0306 H      24  UNL24       0.0806
    121 CL          4.1110   13.6456   23.5877 Cl     25  UNL25      -0.0870
    122 CL          3.3155   10.8624   23.9116 Cl     25  UNL25      -0.0870
    123 CL          1.2971   12.9626   23.9034 Cl     25  UNL25      -0.0870
    124 C           2.8581   12.4400   23.2479 C.3    25  UNL25       0.1805
    125 H           2.7603   12.3418   22.1637 H      25  UNL25       0.0806
    126 CL          3.3989   13.8624   28.0544 Cl     26  UNL26      -0.0870
    127 CL          3.9248   11.0703   27.4124 Cl     26  UNL26      -0.0870
    128 CL          1.1893   12.0712   27.4270 Cl     26  UNL26      -0.0870
    129 C           2.8834   12.4673   27.0917 C.3    26  UNL26       0.1805
    130 H           2.9729   12.7274   26.0339 H      26  UNL26       0.0806
    131 CL          4.0074   11.1264   31.4021 Cl     27  UNL27      -0.0870
    132 CL          1.1597   10.7493   30.9200 Cl     27  UNL27      -0.0870
    133 CL          2.9385    8.4446   31.0159 Cl     27  UNL27      -0.0870
    134 C           2.6147   10.0625   31.6615 C.3    27  UNL27       0.1805
    135 H           2.4441    9.9756   32.7376 H      27  UNL27       0.0806
    136 CL          3.7165   16.1117    0.5045 Cl     28  UNL28      -0.0870
    137 CL          4.0077   18.0716   -1.6305 Cl     28  UNL28      -0.0870
    138 CL          1.3835   16.9674   -1.0150 Cl     28  UNL28      -0.0870
    139 C           2.9487   17.4618   -0.3479 C.3    28  UNL28       0.1805
    140 H           2.7775   18.2685    0.3694 H      28  UNL28       0.0806
    141 CL         -0.4743   16.2648    4.2488 Cl     28  UNL28      -0.0870
    142 CL          2.3304   16.8963    3.7807 Cl     28  UNL28      -0.0870
    143 CL          0.2845   17.9340    1.9856 Cl     28  UNL28      -0.0870
    144 C           0.6644   17.4863    3.6573 C.3    28  UNL28       0.1805
    145 H           0.5680   18.3777    4.2824 H      28  UNL28       0.0806
    146 CL          0.4265   18.7700    7.9573 Cl     28  UNL28      -0.0870
    147 CL          3.2383   18.0312    7.7775 Cl     28  UNL28      -0.0870
    148 CL          1.1750   16.0024    7.4434 Cl     28  UNL28      -0.0870
    149 C           1.6044   17.7006    7.1776 C.3    28  UNL28       0.1805
    150 H           1.5867   17.8956    6.1023 H      28  UNL28       0.0806
    151 CL          0.3653   18.7186   11.3886 Cl     28  UNL28      -0.0870
    152 CL          3.0992   17.7179   11.4789 Cl     28  UNL28      -0.0870
    153 CL          0.8620   15.8601   11.6465 Cl     28  UNL28      -0.0870
    154 C           1.4423   17.3822   10.9495 C.3    28  UNL28       0.1805
    155 H           1.4422   17.2840    9.8609 H      28  UNL28       0.0806
    156 CL          0.2561   18.6933   15.3818 Cl     28  UNL28      -0.0870
    157 CL          3.0600   17.9198   15.5368 Cl     28  UNL28      -0.0870
    158 CL          1.0067   15.8874   15.1645 Cl     28  UNL28      -0.0870
    159 C           1.4867   17.5553   14.8082 C.3    28  UNL28       0.1805
    160 H           1.5763   17.6633   13.7243 H      28  UNL28       0.0806
    161 CL          0.5721   18.8495   19.2956 Cl     28  UNL28      -0.0870
    162 CL          3.0829   17.3937   19.0492 Cl     28  UNL28      -0.0870
    163 CL          0.5685   15.9371   19.2517 Cl     28  UNL28      -0.0870
    164 C           1.3584   17.4020   18.6436 C.3    28  UNL28       0.1805
    165 H           1.2611   17.4185   17.5551 H      28  UNL28       0.0806
    166 CL          1.1399   19.0723   23.0999 Cl     28  UNL28      -0.0870
    167 CL          3.1647   16.9784   23.0999 Cl     28  UNL28      -0.0870
    168 CL          0.3388   16.2719   23.0998 Cl     28  UNL28      -0.0870
    169 C           1.5480   17.4409   22.5424 C.3    28  UNL28       0.1805
    170 H           1.5479   17.4410   21.4494 H      28  UNL28       0.0806
    171 CL          0.7467   18.6197   27.1872 Cl     28  UNL28      -0.0870
    172 CL          3.2267   17.1291   26.8521 Cl     28  UNL28      -0.0870
    173 CL          0.6756   15.7235   26.8846 Cl     28  UNL28      -0.0870
    174 C           1.5104   17.2162   26.4217 C.3    28  UNL28       0.1805
    175 H           1.4330   17.3314   25.3375 H      28  UNL28       0.0806
    176 CL         -0.7575   16.1346   32.5002 Cl     28  UNL28      -0.0870
    177 CL          2.0094   16.8814   31.9802 Cl     28  UNL28      -0.0870
    178 CL          1.2415   14.0719   32.0171 Cl     28  UNL28      -0.0870
    179 C           0.7224   15.7186   31.6195 C.3    28  UNL28       0.1805
    180 H           0.5091   15.7628   30.5485 H      28  UNL28       0.0806
    181 CL          1.2491   23.4659   -0.5834 Cl     28  UNL28      -0.0870
    182 CL          3.8817   23.6845    0.6435 Cl     28  UNL28      -0.0870
    183 CL          2.8224   21.0679   -0.0751 Cl     28  UNL28      -0.0870
    184 C           2.8828   22.7844   -0.5100 C.3    28  UNL28       0.1805
    185 H           3.3369   22.8725   -1.5003 H      28  UNL28       0.0806
    186 CL          3.2563   22.6494    3.9012 Cl     28  UNL28      -0.0870
    187 CL          0.4482   21.8798    3.8208 Cl     28  UNL28      -0.0870
    188 CL          1.2005   24.5566    4.6889 Cl     28  UNL28      -0.0870
    189 C           1.6006   23.2089    3.6106 C.3    28  UNL28       0.1805
    190 H           1.5333   23.5625    2.5786 H      28  UNL28       0.0806
    191 CL          2.9254   21.2153    8.1253 Cl     28  UNL28      -0.0870
    192 CL          1.2222   23.5767    8.0433 Cl     28  UNL28      -0.0870
    193 CL          4.1120   23.8564    7.8083 Cl     28  UNL28      -0.0870
    194 C           2.7127   22.8344    7.4385 C.3    28  UNL28       0.1805
    195 H           2.6336   22.7396    6.3524 H      28  UNL28       0.0806
    196 CL          2.9887   21.2055   11.8632 Cl     28  UNL28      -0.0870
    197 CL          1.4580   23.6837   11.8632 Cl     28  UNL28      -0.0870
    198 CL          4.3696   23.7702   11.8631 Cl     28  UNL28      -0.0870
    199 C           2.9386   22.8865   11.3057 C.3    28  UNL28       0.1805
    200 H           2.9386   22.8864   10.2127 H      28  UNL28       0.0806
    201 CL          1.4615   23.8014   15.4907 Cl     28  UNL28      -0.0870
    202 CL          4.3626   23.7831   15.7509 Cl     28  UNL28      -0.0870
    203 CL          2.8757   21.2802   15.8478 Cl     28  UNL28      -0.0870
    204 C           2.9493   22.9043   15.1435 C.3    28  UNL28       0.1805
    205 H           3.0459   22.8049   14.0593 H      28  UNL28       0.0806
    206 CL          1.2071   22.8679   19.6867 Cl     28  UNL28      -0.0870
    207 CL          3.1092   25.0207   19.2055 Cl     28  UNL28      -0.0870
    208 CL          4.0662   22.3116   19.6846 Cl     28  UNL28      -0.0870
    209 C           2.7735   23.2961   18.9783 C.3    28  UNL28       0.1805
    210 H           2.7329   23.0920   17.9053 H      28  UNL28       0.0806
    211 CL          3.8002   24.5794   23.6229 Cl     28  UNL28      -0.0870
    212 CL          3.7349   21.7462   22.9498 Cl     28  UNL28      -0.0870
    213 CL          1.2776   23.1246   23.6891 Cl     28  UNL28      -0.0870
    214 C           2.8491   23.2792   22.8855 C.3    28  UNL28       0.1805
    215 H           2.6756   23.5324   21.8366 H      28  UNL28       0.0806
    216 CL          3.1090   24.2650   27.7281 Cl     28  UNL28      -0.0870
    217 CL          4.2747   21.5962   27.6751 Cl     28  UNL28      -0.0870
    218 CL          1.3961   21.9344   27.3848 Cl     28  UNL28      -0.0870
    219 C           2.9869   22.6358   27.0431 C.3    28  UNL28       0.1805
    220 H           3.1047   22.7089   25.9589 H      28  UNL28       0.0806
    221 CL          1.9770   22.9121   30.7948 Cl     28  UNL28      -0.0870
    222 CL         -0.7433   22.0962   30.1482 Cl     28  UNL28      -0.0870
    223 CL          1.2633   20.0882   30.8010 Cl     28  UNL28      -0.0870
    224 C           0.6933   21.7352   31.1200 C.3    28  UNL28       0.1805
    225 H           0.4210   21.8064   32.1761 H      28  UNL28       0.0806
    226 CL          1.2631   26.9905   -0.8524 Cl     28  UNL28      -0.0870
    227 CL          3.2292   29.1355   -0.9849 Cl     28  UNL28      -0.0870
    228 CL          0.3967   29.7691   -0.7403 Cl     28  UNL28      -0.0870
    229 C           1.6760   28.6237   -0.3037 C.3    28  UNL28       0.1805
    230 H           1.7665   28.6079    0.7854 H      28  UNL28       0.0806
    231 CL          0.2615   27.2606   13.0848 Cl     28  UNL28      -0.0870
    232 CL          2.5594   26.9607   11.3202 Cl     28  UNL28      -0.0870
    233 CL         -0.1195   27.1833   10.1982 Cl     28  UNL28      -0.0870
    234 C           0.9559   27.6891   11.5123 C.3    28  UNL28       0.1805
    235 H           1.0643   28.7759   11.4689 H      28  UNL28       0.0806
    236 CL          4.2343   29.6089   15.5231 Cl     28  UNL28      -0.0870
    237 CL          3.3588   26.9597   14.6868 Cl     28  UNL28      -0.0870
    238 CL          1.4325   28.8538   15.7762 Cl     28  UNL28      -0.0870
    239 C           2.9098   28.6686   14.8157 C.3    28  UNL28       0.1805
    240 H           2.7162   29.0502   13.8099 H      28  UNL28       0.0806
    241 CL          0.4756   29.6063   23.1508 Cl     28  UNL28      -0.0870
    242 CL          2.7754   27.8675   22.7360 Cl     28  UNL28      -0.0870
    243 CL          0.5193   26.9432   24.3299 Cl     28  UNL28      -0.0870
    244 C           1.0175   27.9319   22.9466 C.3    28  UNL28       0.1805
    245 H           0.5482   27.5259   22.0469 H      28  UNL28       0.0806
    246 CL          4.2891   29.0606   28.1554 Cl     28  UNL28      -0.0870
    247 CL          2.6660   29.7612   25.8404 Cl     28  UNL28      -0.0870
    248 CL          4.0613   27.2055   25.9213 Cl     28  UNL28      -0.0870
    249 C           3.2275   28.4407   26.8796 C.3    28  UNL28       0.1805
    250 H           2.3560   27.9798   27.3513 H      28  UNL28       0.0806
    251 CL          1.4198   29.3862   32.7376 Cl     28  UNL28      -0.0870
    252 CL          2.3355   27.4930   30.7223 Cl     28  UNL28      -0.0870
    253 CL          0.3483   26.6782   32.6900 Cl     28  UNL28      -0.0870
    254 C           0.9607   28.0196   31.7078 C.3    28  UNL28       0.1805
    255 H           0.1622   28.3474   31.0373 H      28  UNL28       0.0806
    256 CL          3.6974    0.2154    0.0941 Cl     28  UNL28      -0.0870
    257 CL          6.2987    1.4942    0.3805 Cl     28  UNL28      -0.0870
    258 CL          4.3163    2.6160   -1.4350 Cl     28  UNL28      -0.0870
    259 C           4.5703    1.7570    0.0937 C.3    28  UNL28       0.1805
    260 H           4.1771    2.3751    0.9049 H      28  UNL28       0.0806
    261 CL         10.0065    1.2806    4.0992 Cl     28  UNL28      -0.0870
    262 CL          9.8874   -1.6193    4.3452 Cl     28  UNL28      -0.0870
    263 CL          7.4280   -0.0740    4.1257 Cl     28  UNL28      -0.0870
    264 C           9.1269   -0.1855    3.6350 C.3    28  UNL28       0.1805
    265 H           9.1650   -0.2793    2.5467 H      28  UNL28       0.0806
    266 CL          7.0125    2.7221    8.0619 Cl     28  UNL28      -0.0870
    267 CL          9.9167    2.7278    7.8391 Cl     28  UNL28      -0.0870
    268 CL          8.4194    0.2876    7.3020 Cl     28  UNL28      -0.0870
    269 C           8.4081    2.0562    7.1973 C.3    28  UNL28       0.1805
    270 H           8.3267    2.3379    6.1444 H      28  UNL28       0.0806
    271 CL          7.4971   -1.7219   11.6116 Cl     28  UNL28      -0.0870
    272 CL          7.0825    1.1135   11.0892 Cl     28  UNL28      -0.0870
    273 CL          9.6346    0.1844   12.1419 Cl     28  UNL28      -0.0870
    274 C           8.2609   -0.2093   11.0944 C.3    28  UNL28       0.1805
    275 H           8.6327   -0.3428   10.0753 H      28  UNL28       0.0806
    276 CL          6.4598    1.4489   14.5895 Cl     28  UNL28      -0.0870
    277 CL          9.1675    0.8531   15.4824 Cl     28  UNL28      -0.0870
    278 CL          6.9487   -0.8296   16.3369 Cl     28  UNL28      -0.0870
    279 C           7.6008    0.1650   15.0236 C.3    28  UNL28       0.1805
    280 H           7.7485   -0.4739   14.1492 H      28  UNL28       0.0806
    281 CL          6.3325   -0.9574   19.6666 Cl     28  UNL28      -0.0870
    282 CL          9.0670   -0.4899   18.7788 Cl     28  UNL28      -0.0870
    283 CL          7.1351    1.6900   18.7547 Cl     28  UNL28      -0.0870
    284 C           7.6576    0.2160   19.5875 C.3    28  UNL28       0.1805
    285 H           7.9437    0.4809   20.6086 H      28  UNL28       0.0806
    286 CL          6.8465    0.6478   24.0174 Cl     28  UNL28      -0.0870
    287 CL          9.7352    0.9134   23.7543 Cl     28  UNL28      -0.0870
    288 CL          8.5738   -1.6350   24.5555 Cl     28  UNL28      -0.0870
    289 C           8.3505   -0.1769   23.5739 C.3    28  UNL28       0.1805
    290 H           8.2823   -0.4757   22.5248 H      28  UNL28       0.0806
    291 CL          8.3057    1.9217   28.2400 Cl     28  UNL28      -0.0870
    292 CL         10.1939   -0.0752   27.2750 Cl     28  UNL28      -0.0870
    293 CL          7.6903   -0.9129   28.5060 Cl     28  UNL28      -0.0870
    294 C           8.4822    0.3182   27.5076 C.3    28  UNL28       0.1805
    295 H           7.9962    0.3318   26.5287 H      28  UNL28       0.0806
    296 CL          7.7748   -0.9255   31.8825 Cl     28  UNL28      -0.0870
    297 CL          6.0534    1.1677   30.8154 Cl     28  UNL28      -0.0870
    298 CL          5.1247   -1.5925   30.8746 Cl     28  UNL28      -0.0870
    299 C           6.1036   -0.3671   31.6988 C.3    28  UNL28       0.1805
    300 H           5.6839   -0.2046   32.6949 H      28  UNL28       0.0806
    301 CL          8.7685    6.3754    0.1110 Cl     28  UNL28      -0.0870
    302 CL          6.9647    4.6604   -1.4019 Cl     28  UNL28      -0.0870
    303 CL          9.8029    4.7242   -2.0541 Cl     28  UNL28      -0.0870
    304 C           8.6041    4.8383   -0.7544 C.3    28  UNL28       0.1805
    305 H           8.7849    4.0246   -0.0474 H      28  UNL28       0.0806
    306 CL         10.0216    4.3054    2.4303 Cl     28  UNL28      -0.0870
    307 CL          8.6110    6.5739    3.5914 Cl     28  UNL28      -0.0870
    308 CL          7.1182    4.4592    2.2557 Cl     28  UNL28      -0.0870
    309 C           8.5400    4.8385    3.2424 C.3    28  UNL28       0.1805
    310 H           8.4546    4.3003    4.1899 H      28  UNL28       0.0806
    311 CL          6.6874    7.9197    6.9396 Cl     28  UNL28      -0.0870
    312 CL          8.3843    5.5636    6.7094 Cl     28  UNL28      -0.0870
    313 CL          9.5550    8.2248    6.5299 Cl     28  UNL28      -0.0870
    314 C           8.2874    7.2386    7.2782 C.3    28  UNL28       0.1805
    315 H           8.4414    7.2439    8.3603 H      28  UNL28       0.0806
    316 CL          9.1384    6.9818   11.8712 Cl     28  UNL28      -0.0870
    317 CL          8.8225    4.1298   11.3709 Cl     28  UNL28      -0.0870
    318 CL          6.4741    5.8112   11.7483 Cl     28  UNL28      -0.0870
    319 C           8.1272    5.7390   11.1150 C.3    28  UNL28       0.1805
    320 H           8.0922    5.9316   10.0396 H      28  UNL28       0.0806
    321 CL          8.8713    7.0022   15.3498 Cl     28  UNL28      -0.0870
    322 CL          9.3655    4.1500   15.6738 Cl     28  UNL28      -0.0870
    323 CL          6.6345    5.1633   15.6655 Cl     28  UNL28      -0.0870
    324 C           8.2674    5.3716   15.0101 C.3    28  UNL28       0.1805
    325 H           8.2221    5.2407   13.9259 H      28  UNL28       0.0806
    326 CL          9.1858    7.0102   19.3376 Cl     28  UNL28      -0.0870
    327 CL          9.1740    4.1542   19.9097 Cl     28  UNL28      -0.0870
    328 CL          6.6591    5.6109   19.7142 Cl     28  UNL28      -0.0870
    329 C           8.3189    5.4823   19.1076 C.3    28  UNL28       0.1805
    330 H           8.2780    5.2681   18.0366 H      28  UNL28       0.0806
    331 CL          9.3303    6.4367   23.7700 Cl     28  UNL28      -0.0870
    332 CL          7.7627    4.0548   24.3648 Cl     28  UNL28      -0.0870
    333 CL          6.4355    6.4811   23.4499 Cl     28  UNL28      -0.0870
    334 C           7.8987    5.4887   23.3333 C.3    28  UNL28       0.1805
    335 H           8.0082    5.1580   22.2973 H      28  UNL28       0.0806
    336 CL          8.3642    7.4694   27.4973 Cl     28  UNL28      -0.0870
    337 CL          9.2987    5.1641   29.0126 Cl     28  UNL28      -0.0870
    338 CL          6.4491    5.5376   28.5385 Cl     28  UNL28      -0.0870
    339 C           8.0774    5.7630   27.8775 C.3    28  UNL28       0.1805
    340 H           8.1558    5.1866   26.9522 H      28  UNL28       0.0806
    341 CL          8.2083    6.0199   32.5685 Cl     28  UNL28      -0.0870
    342 CL          6.7462    8.5335   32.7372 Cl     28  UNL28      -0.0870
    343 CL          8.9340    8.2459   30.8357 Cl     28  UNL28      -0.0870
    344 C           7.6038    7.4169   31.6619 C.3    28  UNL28       0.1805
    345 H           6.9001    7.0581   30.9064 H      28  UNL28       0.0806
    346 CL          8.8467    9.6206    1.4353 Cl     28  UNL28      -0.0870
    347 CL          8.4939   12.4431    0.8083 Cl     28  UNL28      -0.0870
    348 CL          6.3870   10.9844    2.1932 Cl     28  UNL28      -0.0870
    349 C           8.1364   11.1534    1.9691 C.3    28  UNL28       0.1805
    350 H           8.5819   11.4225    2.9303 H      28  UNL28       0.0806
    351 CL          7.4288   10.8867    5.3694 Cl     28  UNL28      -0.0870
    352 CL          6.7948   13.4608    6.5762 Cl     28  UNL28      -0.0870
    353 CL          9.5724   12.7076    6.1266 Cl     28  UNL28      -0.0870
    354 C           7.9131   12.5844    5.5179 C.3    28  UNL28       0.1805
    355 H           7.8762   13.0406    4.5253 H      28  UNL28       0.0806
    356 CL          6.7696   12.2555    9.8507 Cl     28  UNL28      -0.0870
    357 CL          9.6707   12.2139    9.5931 Cl     28  UNL28      -0.0870
    358 CL          8.1839    9.7124    9.7214 Cl     28  UNL28      -0.0870
    359 C           8.1588   11.3948    9.1664 C.3    28  UNL28       0.1805
    360 H           8.0621   11.3965    8.0777 H      28  UNL28       0.0806
    361 CL          6.5518   12.0684   13.8932 Cl     28  UNL28      -0.0870
    362 CL          9.3615   11.3047   13.9725 Cl     28  UNL28      -0.0870
    363 CL          7.3352    9.3323   13.2736 Cl     28  UNL28      -0.0870
    364 C           7.8019   11.0387   13.1752 C.3    28  UNL28       0.1805
    365 H           7.9045   11.3070   12.1206 H      28  UNL28       0.0806
    366 CL          7.2717   12.1630   17.9797 Cl     28  UNL28      -0.0870
    367 CL          9.6188   10.4581   17.7179 Cl     28  UNL28      -0.0870
    368 CL          6.9625    9.2697   17.8483 Cl     28  UNL28      -0.0870
    369 C           7.9106   10.6598   17.2934 C.3    28  UNL28       0.1805
    370 H           7.8312   10.7178   16.2049 H      28  UNL28       0.0806
    371 CL          9.6379   11.4888   21.8703 Cl     28  UNL28      -0.0870
    372 CL          8.1431    8.9939   21.7126 Cl     28  UNL28      -0.0870
    373 CL          6.7374   11.5431   21.6093 Cl     28  UNL28      -0.0870
    374 C           8.2229   10.6803   21.1756 C.3    28  UNL28       0.1805
    375 H           8.3211   10.6904   20.0870 H      28  UNL28       0.0806
    376 CL          6.8397    9.6223   25.2379 Cl     28  UNL28      -0.0870
    377 CL          6.7645   12.4561   25.9073 Cl     28  UNL28      -0.0870
    378 CL          9.2919   11.0096   25.9769 Cl     28  UNL28      -0.0870
    379 C           7.7204   11.1581   25.1722 C.3    28  UNL28       0.1805
    380 H           7.8938   11.4105   24.1230 H      28  UNL28       0.0806
    381 CL          9.0710   14.1784   32.4863 Cl     28  UNL28      -0.0870
    382 CL          8.1745   11.5372   31.6469 Cl     28  UNL28      -0.0870
    383 CL          6.2631   13.4456   32.7376 Cl     28  UNL28      -0.0870
    384 C           7.7393   13.2496   31.7774 C.3    28  UNL28       0.1805
    385 H           7.5491   13.6338   30.7720 H      28  UNL28       0.0806
    386 CL          7.4882   15.4477   -2.2452 Cl     28  UNL28      -0.0870
    387 CL          9.4266   15.6090   -0.0770 Cl     28  UNL28      -0.0870
    388 CL          6.9887   17.1997    0.0275 Cl     28  UNL28      -0.0870
    389 C           7.7075   15.6690   -0.5011 C.3    28  UNL28       0.1805
    390 H           7.1969   14.8525    0.0160 H      28  UNL28       0.0806
    391 CL          8.5011   18.4435    4.0403 Cl     28  UNL28      -0.0870
    392 CL          9.1432   15.6151    4.3087 Cl     28  UNL28      -0.0870
    393 CL          6.4959   16.4283    3.4057 Cl     28  UNL28      -0.0870
    394 C           8.2241   16.8190    3.3898 C.3    28  UNL28       0.1805
    395 H           8.5715   16.7997    2.3537 H      28  UNL28       0.0806
    396 CL          6.8371   18.3594    6.7749 Cl     28  UNL28      -0.0870
    397 CL          8.5676   16.2111    7.7099 Cl     28  UNL28      -0.0870
    398 CL          9.6008   18.9264    7.4990 Cl     28  UNL28      -0.0870
    399 C           8.1769   17.9332    7.8529 C.3    28  UNL28       0.1805
    400 H           7.8666   18.1312    8.8820 H      28  UNL28       0.0806
    401 CL          8.5804   14.2154   12.1593 Cl     28  UNL28      -0.0870
    402 CL          6.6341   16.3419   11.7421 Cl     28  UNL28      -0.0870
    403 CL          9.4837   16.9427   11.6797 Cl     28  UNL28      -0.0870
    404 C           8.2416   15.7339   11.3119 C.3    28  UNL28       0.1805
    405 H           8.2592   15.5389   10.2366 H      28  UNL28       0.0806
    406 CL          8.6269   14.3260   15.5800 Cl     28  UNL28      -0.0870
    407 CL          6.6735   16.4739   15.8138 Cl     28  UNL28      -0.0870
    408 CL          9.5205   17.0896   15.7987 Cl     28  UNL28      -0.0870
    409 C           8.2601   16.0114   15.1756 C.3    28  UNL28       0.1805
    410 H           8.2339   16.1060   14.0870 H      28  UNL28       0.0806
    411 CL          6.5245   16.1169   19.3337 Cl     28  UNL28      -0.0870
    412 CL          9.1480   17.3716   19.4990 Cl     28  UNL28      -0.0870
    413 CL          8.8795   14.4988   19.8991 Cl     28  UNL28      -0.0870
    414 C           8.2581   15.9129   19.0310 C.3    28  UNL28       0.1805
    415 H           8.4034   15.7501   17.9600 H      28  UNL28       0.0806
    416 CL          6.5568   16.3864   23.7276 Cl     28  UNL28      -0.0870
    417 CL          9.3578   17.1570   23.5164 Cl     28  UNL28      -0.0870
    418 CL          8.6042   14.3477   23.3594 Cl     28  UNL28      -0.0870
    419 C           8.1187   16.0093   22.9815 C.3    28  UNL28       0.1805
    420 H           8.0124   16.0984   21.8974 H      28  UNL28       0.0806
    421 CL          8.9009   17.5205   28.0518 Cl     28  UNL28      -0.0870
    422 CL          9.1038   14.6874   27.4068 Cl     28  UNL28      -0.0870
    423 CL          6.5000   15.9931   27.4303 Cl     28  UNL28      -0.0870
    424 C           8.2272   16.1940   27.0900 C.3    28  UNL28       0.1805
    425 H           8.3425   16.4432   26.0321 H      28  UNL28       0.0806
    426 CL          5.0379   18.5253   32.2259 Cl     28  UNL28      -0.0870
    427 CL          5.9573   18.7728   29.4731 Cl     28  UNL28      -0.0870
    428 CL          6.2898   16.2546   30.8989 Cl     28  UNL28      -0.0870
    429 C           5.2625   17.6821   30.6840 C.3    28  UNL28       0.1805
    430 H           4.2838   17.3510   30.3274 H      28  UNL28       0.0806
    431 CL          7.5811   20.7603    0.9516 Cl     28  UNL28      -0.0870
    432 CL          6.7996   23.1061    2.4913 Cl     28  UNL28      -0.0870
    433 CL          9.6154   22.5875    1.9552 Cl     28  UNL28      -0.0870
    434 C           7.9638   22.4485    1.3290 C.3    28  UNL28       0.1805
    435 H           7.8955   23.0310    0.4067 H      28  UNL28       0.0806
    436 CL          9.2070   21.5877    5.2578 Cl     28  UNL28      -0.0870
    437 CL          6.9232   23.3139    5.7949 Cl     28  UNL28      -0.0870
    438 CL          9.5946   24.1351    6.6159 Cl     28  UNL28      -0.0870
    439 C           8.6489   23.2633    5.3974 C.3    28  UNL28       0.1805
    440 H           8.7942   23.7556    4.4324 H      28  UNL28       0.0806
    441 CL          7.3276   23.6044    9.2235 Cl     28  UNL28      -0.0870
    442 CL          9.5893   21.8202    9.6540 Cl     28  UNL28      -0.0870
    443 CL          6.8897   20.7375    9.4948 Cl     28  UNL28      -0.0870
    444 C           7.9925   21.9932    8.9062 C.3    28  UNL28       0.1805
    445 H           8.1041   21.8740    7.8255 H      28  UNL28       0.0806
    446 CL          9.7742   21.6575   13.5419 Cl     28  UNL28      -0.0870
    447 CL          8.0538   19.3167   13.7538 Cl     28  UNL28      -0.0870
    448 CL          6.8785   21.9708   13.5100 Cl     28  UNL28      -0.0870
    449 C           8.2362   20.9309   13.0468 C.3    28  UNL28       0.1805
    450 H           8.2375   20.8315   11.9583 H      28  UNL28       0.0806
    451 CL          7.4859   22.3129   17.7340 Cl     28  UNL28      -0.0870
    452 CL          9.8191   20.5889   17.9952 Cl     28  UNL28      -0.0870
    453 CL          7.1758   19.4183   17.6382 Cl     28  UNL28      -0.0870
    454 C           8.2303   20.7843   17.2362 C.3    28  UNL28       0.1805
    455 H           8.3673   20.8055   16.1520 H      28  UNL28       0.0806
    456 CL          9.8864   21.6240   21.7506 Cl     28  UNL28      -0.0870
    457 CL          7.7481   19.6523   21.9067 Cl     28  UNL28      -0.0870
    458 CL          7.1190   22.4946   22.0117 Cl     28  UNL28      -0.0870
    459 C           8.2018   21.2664   21.3345 C.3    28  UNL28       0.1805
    460 H           8.1051   21.2853   20.2459 H      28  UNL28       0.0806
    461 CL          9.5590   21.2331   26.4430 Cl     28  UNL28      -0.0870
    462 CL          7.6217   19.2367   25.5794 Cl     28  UNL28      -0.0870
    463 CL          6.9459   22.0678   25.4634 Cl     28  UNL28      -0.0870
    464 C           8.2453   20.8730   25.3102 C.3    28  UNL28       0.1805
    465 H           8.6434   20.9264   24.2937 H      28  UNL28       0.0806
    466 CL          7.8016   21.5131   30.6303 Cl     28  UNL28      -0.0870
    467 CL          6.1250   22.8565   32.5971 Cl     28  UNL28      -0.0870
    468 CL          9.0234   23.1105   32.7373 Cl     28  UNL28      -0.0870
    469 C           7.6263   22.9437   31.6605 C.3    28  UNL28       0.1805
    470 H           7.5800   23.8266   31.0179 H      28  UNL28       0.0806
    471 CL          5.7991   28.6571    4.7873 Cl     28  UNL28      -0.0870
    472 CL          5.1619   29.0114    1.9673 Cl     28  UNL28      -0.0870
    473 CL          6.4700   26.5701    2.8694 Cl     28  UNL28      -0.0870
    474 C           5.3122   27.8433    3.2908 C.3    28  UNL28       0.1805
    475 H           4.3357   27.3801    3.4534 H      28  UNL28       0.0806
    476 CL          6.6484   26.5493   15.5559 Cl     28  UNL28      -0.0870
    477 CL          9.2947   27.7050   15.1748 Cl     28  UNL28      -0.0870
    478 CL          9.0245   24.9212   15.9884 Cl     28  UNL28      -0.0870
    479 C           8.3134   26.2364   15.0377 C.3    28  UNL28       0.1805
    480 H           8.2954   25.9314   13.9883 H      28  UNL28       0.0806
    481 CL          7.1057   25.7493   20.4476 Cl     28  UNL28      -0.0870
    482 CL          8.0663   28.1955   19.1918 Cl     28  UNL28      -0.0870
    483 CL          9.7386   25.8106   19.2034 Cl     28  UNL28      -0.0870
    484 C           8.0784   26.4250   19.1301 C.3    28  UNL28       0.1805
    485 H           7.6370   26.1109   18.1808 H      28  UNL28       0.0806
    486 CL          8.4718   27.6705   27.4332 Cl     28  UNL28      -0.0870
    487 CL          6.8925   25.3213   26.7470 Cl     28  UNL28      -0.0870
    488 CL          9.4080   25.8376   25.3721 Cl     28  UNL28      -0.0870
    489 C           8.5293   25.9807   26.9040 C.3    28  UNL28       0.1805
    490 H           9.0625   25.4010   27.6617 H      28  UNL28       0.0806
    491 CL          5.4302   27.2344   32.3346 Cl     28  UNL28      -0.0870
    492 CL          5.8712   30.0856   32.7353 Cl     28  UNL28      -0.0870
    493 CL          6.9985   28.7508   30.4046 Cl     28  UNL28      -0.0870
    494 C           5.6363   28.8026   31.5364 C.3    28  UNL28       0.1805
    495 H           4.7273   29.0226   30.9707 H      28  UNL28       0.0806
    496 CL         11.8358    2.4201   -0.5687 Cl     28  UNL28      -0.0870
    497 CL          9.2839    1.3175   -1.4381 Cl     28  UNL28      -0.0870
    498 CL         11.3589   -0.4489   -0.4090 Cl     28  UNL28      -0.0870
    499 C          10.6235    1.1587   -0.2897 C.3    28  UNL28       0.1805
    500 H          10.2263    1.2810    0.7212 H      28  UNL28       0.0806
    501 CL         16.5173    3.3909    2.2913 Cl     28  UNL28      -0.0870
    502 CL         14.0103    1.9424    1.9737 Cl     28  UNL28      -0.0870
    503 CL         16.5253    0.4821    2.1390 Cl     28  UNL28      -0.0870
    504 C          15.6308    1.9094    2.6888 C.3    28  UNL28       0.1805
    505 H          15.5263    1.8523    3.7753 H      28  UNL28       0.0806
    506 CL         14.9634    0.7779    7.4082 Cl     28  UNL28      -0.0870
    507 CL         12.8495   -0.7516    8.7030 Cl     28  UNL28      -0.0870
    508 CL         13.1561   -0.8522    5.8080 Cl     28  UNL28      -0.0870
    509 C          14.0021   -0.7094    7.3582 C.3    28  UNL28       0.1805
    510 H          14.6802   -1.5607    7.4595 H      28  UNL28       0.0806
    511 CL         15.2196    2.6667   11.6860 Cl     28  UNL28      -0.0870
    512 CL         13.9111    0.0777   11.9478 Cl     28  UNL28      -0.0870
    513 CL         12.3321    2.4555   11.3666 Cl     28  UNL28      -0.0870
    514 C          13.8879    1.6441   11.1206 C.3    28  UNL28       0.1805
    515 H          14.0192    1.4696   10.0497 H      28  UNL28       0.0806
    516 CL         13.9730    0.2320   15.4485 Cl     28  UNL28      -0.0870
    517 CL         12.2465    2.5515   15.7991 Cl     28  UNL28      -0.0870
    518 CL         15.1244    2.9065   15.5227 Cl     28  UNL28      -0.0870
    519 C          13.7231    1.9370   15.0372 C.3    28  UNL28       0.1805
    520 H          13.6093    2.0160   13.9530 H      28  UNL28       0.0806
    521 CL         12.5596    2.7331   19.4519 Cl     28  UNL28      -0.0870
    522 CL         15.4724    2.7382   19.4514 Cl     28  UNL28      -0.0870
    523 CL         14.0203    0.2233   19.6783 Cl     28  UNL28      -0.0870
    524 C          14.0175    1.8482   18.9720 C.3    28  UNL28       0.1805
    525 H          14.0174    1.7501   17.8834 H      28  UNL28       0.0806
    526 CL         15.4165    2.3709   23.5624 Cl     28  UNL28      -0.0870
    527 CL         13.4753    0.2095   23.3524 Cl     28  UNL28      -0.0870
    528 CL         12.5654    2.9661   23.5927 Cl     28  UNL28      -0.0870
    529 C          13.8237    1.8986   22.9473 C.3    28  UNL28       0.1805
    530 H          13.8326    1.9965   21.8587 H      28  UNL28       0.0806
    531 CL         15.4255    2.3520   27.4068 Cl     28  UNL28      -0.0870
    532 CL         13.6865    0.0154   27.4068 Cl     28  UNL28      -0.0870
    533 CL         12.5325    2.6899   27.4067 Cl     28  UNL28      -0.0870
    534 C          13.8816    1.6856   26.8493 C.3    28  UNL28       0.1805
    535 H          13.8816    1.6857   25.7563 H      28  UNL28       0.0806
    536 CL         11.6005    0.4575   32.5947 Cl     28  UNL28      -0.0870
    537 CL         12.0414    3.3332   32.7376 Cl     28  UNL28      -0.0870
    538 CL         13.1688    1.7943   30.5362 Cl     28  UNL28      -0.0870
    539 C          11.8066    1.9476   31.6588 C.3    28  UNL28       0.1805
    540 H          10.8976    2.1159   31.0757 H      28  UNL28       0.0806
    541 CL         13.1500    5.2084    1.0895 Cl     28  UNL28      -0.0870
    542 CL         11.7634    7.6993    1.6872 Cl     28  UNL28      -0.0870
    543 CL         14.5821    7.7411    0.9538 Cl     28  UNL28      -0.0870
    544 C          13.0246    6.9336    0.7064 C.3    28  UNL28       0.1805
    545 H          12.7491    7.0329   -0.3466 H      28  UNL28       0.0806
    546 CL         14.7478    7.0130    5.1316 Cl     28  UNL28      -0.0870
    547 CL         14.0441    4.2331    4.6202 Cl     28  UNL28      -0.0870
    548 CL         12.1429    5.9964    5.9473 Cl     28  UNL28      -0.0870
    549 C          13.4335    5.8920    4.7379 C.3    28  UNL28       0.1805
    550 H          13.0189    6.1757    3.7672 H      28  UNL28       0.0806
    551 CL         14.0801    5.2700    9.5788 Cl     28  UNL28      -0.0870
    552 CL         12.2538    7.5239    9.3166 Cl     28  UNL28      -0.0870
    553 CL         15.1063    7.9943    9.6730 Cl     28  UNL28      -0.0870
    554 C          13.8836    6.9220    8.9698 C.3    28  UNL28       0.1805
    555 H          14.0215    6.9075    7.8856 H      28  UNL28       0.0806
    556 CL         13.6064    5.4591   13.0465 Cl     28  UNL28      -0.0870
    557 CL         12.2842    7.9100   13.9003 Cl     28  UNL28      -0.0870
    558 CL         15.1011    7.9565   13.1600 Cl     28  UNL28      -0.0870
    559 C          13.5231    7.2167   12.8405 C.3    28  UNL28       0.1805
    560 H          13.2473    7.4288   11.8043 H      28  UNL28       0.0806
    561 CL         12.4374    7.7112   17.3095 Cl     28  UNL28      -0.0870
    562 CL         15.3379    7.9780   17.3086 Cl     28  UNL28      -0.0870
    563 CL         14.1150    5.3732   17.7606 Cl     28  UNL28      -0.0870
    564 C          13.9725    6.9216   16.9111 C.3    28  UNL28       0.1805
    565 H          13.9900    6.7267   15.8358 H      28  UNL28       0.0806
    566 CL         15.0990    7.9669   21.3073 Cl     28  UNL28      -0.0870
    567 CL         13.8037    5.3606   21.4242 Cl     28  UNL28      -0.0870
    568 CL         12.2033    7.7902   21.5685 Cl     28  UNL28      -0.0870
    569 C          13.6520    7.0391   20.8781 C.3    28  UNL28       0.1805
    570 H          13.5538    7.0392   19.7895 H      28  UNL28       0.0806
    571 CL         15.2519    8.0840   25.3072 Cl     28  UNL28      -0.0870
    572 CL         13.9513    5.4882   25.5414 Cl     28  UNL28      -0.0870
    573 CL         12.3445    7.9080   25.3230 Cl     28  UNL28      -0.0870
    574 C          13.8493    7.1098   24.8353 C.3    28  UNL28       0.1805
    575 H          13.8494    7.0117   23.7467 H      28  UNL28       0.0806
    576 CL         11.7475    7.3933   32.7376 Cl     28  UNL28      -0.0870
    577 CL         14.2792    5.9944   32.3949 Cl     28  UNL28      -0.0870
    578 CL         12.4337    6.2360   30.1543 Cl     28  UNL28      -0.0870
    579 C          13.0643    7.0196   31.6129 C.3    28  UNL28       0.1805
    580 H          13.5428    7.9575   31.3199 H      28  UNL28       0.0806
    581 CL         15.0905   14.1801    0.5609 Cl     28  UNL28      -0.0870
    582 CL         14.8018   11.3554   -0.0887 Cl     28  UNL28      -0.0870
    583 CL         12.4361   13.0166    0.2702 Cl     28  UNL28      -0.0870
    584 C          14.1145   12.9751   -0.2959 C.3    28  UNL28       0.1805
    585 H          14.1243   13.2192   -1.3613 H      28  UNL28       0.0806
    586 CL         15.4271   12.7405    4.2831 Cl     28  UNL28      -0.0870
    587 CL         13.5291   10.5615    3.9174 Cl     28  UNL28      -0.0870
    588 CL         12.5801   13.3120    4.0544 Cl     28  UNL28      -0.0870
    589 C          13.8992   12.2506    3.5320 C.3    28  UNL28       0.1805
    590 H          14.0045   12.3410    2.4478 H      28  UNL28       0.0806
    591 CL         15.3264   12.7939    7.7153 Cl     28  UNL28      -0.0870
    592 CL         13.4464   10.6372    8.2617 Cl     28  UNL28      -0.0870
    593 CL         12.4681   13.3451    7.8197 Cl     28  UNL28      -0.0870
    594 C          13.7071   12.1551    7.3859 C.3    28  UNL28       0.1805
    595 H          13.6288   11.9520    6.3148 H      28  UNL28       0.0806
    596 CL         13.8810   10.7989   11.5919 Cl     28  UNL28      -0.0870
    597 CL         12.6532   13.4273   11.8530 Cl     28  UNL28      -0.0870
    598 CL         15.5546   13.1728   11.8095 Cl     28  UNL28      -0.0870
    599 C          14.0259   12.5197   11.1966 C.3    28  UNL28       0.1805
    600 H          14.0188   12.6244   10.1086 H      28  UNL28       0.0806
    601 CL         12.4928   13.1994   15.5210 Cl     28  UNL28      -0.0870
    602 CL         15.3825   12.9437   15.7828 Cl     28  UNL28      -0.0870
    603 CL         13.7152   10.5588   15.6522 Cl     28  UNL28      -0.0870
    604 C          13.9134   12.2296   15.0968 C.3    28  UNL28       0.1805
    605 H          14.0112   12.2208   14.0082 H      28  UNL28       0.0806
    606 CL         15.1596   12.9066   19.4497 Cl     28  UNL28      -0.0870
    607 CL         13.4205   10.5794   19.6597 Cl     28  UNL28      -0.0870
    608 CL         12.2665   13.2431   19.4192 Cl     28  UNL28      -0.0870
    609 C          13.6156   12.1928   18.9543 C.3    28  UNL28       0.1805
    610 H          13.6157   12.0946   17.8658 H      28  UNL28       0.0806
    611 CL         15.1950   12.8630   23.3930 Cl     28  UNL28      -0.0870
    612 CL         13.4559   10.5359   23.1830 Cl     28  UNL28      -0.0870
    613 CL         12.3019   13.1996   23.4233 Cl     28  UNL28      -0.0870
    614 C          13.6510   12.2495   22.7779 C.3    28  UNL28       0.1805
    615 H          13.6511   12.3478   21.6893 H      28  UNL28       0.0806
    616 CL         12.2003   12.9700   27.2122 Cl     28  UNL28      -0.0870
    617 CL         15.1012   12.9750   26.9499 Cl     28  UNL28      -0.0870
    618 CL         13.6754   10.4601   27.3064 Cl     28  UNL28      -0.0870
    619 C          13.6091   12.0851   26.6032 C.3    28  UNL28       0.1805
    620 H          13.5112   11.9869   25.5190 H      28  UNL28       0.0806
    621 CL         12.5116   11.1514   30.9473 Cl     28  UNL28      -0.0870
    622 CL         14.0615   13.4133   31.9299 Cl     28  UNL28      -0.0870
    623 CL         15.2688   11.5138   30.0809 Cl     28  UNL28      -0.0870
    624 C          13.7715   12.3337   30.5556 C.3    28  UNL28       0.1805
    625 H          13.4270   12.9364   29.7113 H      28  UNL28       0.0806
    626 CL         12.4624   16.2795    1.5183 Cl     28  UNL28      -0.0870
    627 CL         12.7434   18.8967    2.7653 Cl     28  UNL28      -0.0870
    628 CL         15.1133   17.3881    1.9957 Cl     28  UNL28      -0.0870
    629 C          13.4295   17.7621    1.5904 C.3    28  UNL28       0.1805
    630 H          13.4097   18.2338    0.6046 H      28  UNL28       0.0806
    631 CL         14.9269   18.1754    5.4028 Cl     28  UNL28      -0.0870
    632 CL         14.3531   15.4387    6.2185 Cl     28  UNL28      -0.0870
    633 CL         12.1727   17.3316    5.8344 Cl     28  UNL28      -0.0870
    634 C          13.7802   16.8302    5.2834 C.3    28  UNL28       0.1805
    635 H          13.7069   16.5329    4.2342 H      28  UNL28       0.0806
    636 CL         15.0370   18.5145    9.8102 Cl     28  UNL28      -0.0870
    637 CL         14.6121   15.6390    9.6231 Cl     28  UNL28      -0.0870
    638 CL         12.3410   17.4262    9.9878 Cl     28  UNL28      -0.0870
    639 C          13.9426   17.2371    9.2539 C.3    28  UNL28       0.1805
    640 H          13.8363   17.3235    8.1695 H      28  UNL28       0.0806
    641 CL         14.4086   15.6729   13.8212 Cl     28  UNL28      -0.0870
    642 CL         12.2793   17.6543   13.6642 Cl     28  UNL28      -0.0870
    643 CL         15.0508   18.5122   13.9240 Cl     28  UNL28      -0.0870
    644 C          13.9621   17.2887   13.2479 C.3    28  UNL28       0.1805
    645 H          14.0588   17.3062   12.1593 H      28  UNL28       0.0806
    646 CL         13.8993   15.6316   17.6115 Cl     28  UNL28      -0.0870
    647 CL         12.1591   17.9621   17.7685 Cl     28  UNL28      -0.0870
    648 CL         15.0394   18.3099   17.5085 Cl     28  UNL28      -0.0870
    649 C          13.6491   17.3012   17.0743 C.3    28  UNL28       0.1805
    650 H          13.5508   17.3011   15.9857 H      28  UNL28       0.0806
    651 CL         12.1985   17.6652   21.4913 Cl     28  UNL28      -0.0870
    652 CL         15.0067   18.4385   21.4913 Cl     28  UNL28      -0.0870
    653 CL         14.2722   15.6197   21.4912 Cl     28  UNL28      -0.0870
    654 C          13.8259   17.2413   20.9338 C.3    28  UNL28       0.1805
    655 H          13.8258   17.2413   19.8408 H      28  UNL28       0.0806
    656 CL         15.0016   18.2428   25.5182 Cl     28  UNL28      -0.0870
    657 CL         13.6592   15.6578   25.5154 Cl     28  UNL28      -0.0870
    658 CL         12.1368   18.0901   25.0142 Cl     28  UNL28      -0.0870
    659 C          13.6980   17.2794   24.8030 C.3    28  UNL28       0.1805
    660 H          13.8918   17.1801   23.7319 H      28  UNL28       0.0806
    661 CL         12.2840   17.5242   32.7376 Cl     28  UNL28      -0.0870
    662 CL         13.5859   18.2396   30.2321 Cl     28  UNL28      -0.0870
    663 CL         15.1910   17.5258   32.5557 Cl     28  UNL28      -0.0870
    664 C          13.6773   17.2286   31.6841 C.3    28  UNL28       0.1805
    665 H          13.6585   16.1803   31.3751 H      28  UNL28       0.0806
    666 CL         15.4558   24.8440   -0.5422 Cl     28  UNL28      -0.0870
    667 CL         14.9687   21.9993   -0.1493 Cl     28  UNL28      -0.0870
    668 CL         12.7617   23.8924    0.0239 Cl     28  UNL28      -0.0870
    669 C          14.3017   23.5191   -0.7688 C.3    28  UNL28       0.1805
    670 H          14.1178   23.4027   -1.8400 H      28  UNL28       0.0806
    671 CL         16.3657   24.3898    4.0703 Cl     28  UNL28      -0.0870
    672 CL         15.3161   21.7504    3.4254 Cl     28  UNL28      -0.0870
    673 CL         13.5394   24.0586    3.4489 Cl     28  UNL28      -0.0870
    674 C          15.1820   23.4883    3.1086 C.3    28  UNL28       0.1805
    675 H          15.3943   23.6625    2.0507 H      28  UNL28       0.0806
    676 CL         12.6470   22.4342    6.4219 Cl     28  UNL28      -0.0870
    677 CL         14.9593   20.9077    7.3203 Cl     28  UNL28      -0.0870
    678 CL         12.3413   20.4145    8.4983 Cl     28  UNL28      -0.0870
    679 C          13.2132   20.8670    7.0237 C.3    28  UNL28       0.1805
    680 H          13.0115   20.1120    6.2596 H      28  UNL28       0.0806
    681 CL         12.1552   23.3513   11.6139 Cl     28  UNL28      -0.0870
    682 CL         15.0680   23.3564   11.6135 Cl     28  UNL28      -0.0870
    683 CL         13.6159   20.8415   11.8403 Cl     28  UNL28      -0.0870
    684 C          13.6131   22.4664   11.1340 C.3    28  UNL28       0.1805
    685 H          13.6130   22.3682   10.0454 H      28  UNL28       0.0806
    686 CL         12.3424   21.8648   15.7222 Cl     28  UNL28      -0.0870
    687 CL         13.7978   24.3792   15.5127 Cl     28  UNL28      -0.0870
    688 CL         15.2452   21.8515   15.4813 Cl     28  UNL28      -0.0870
    689 C          13.7489   22.6791   15.0169 C.3    28  UNL28       0.1805
    690 H          13.6584   22.6407   13.9283 H      28  UNL28       0.0806
    691 CL         15.3358   23.4751   19.6015 Cl     28  UNL28      -0.0870
    692 CL         13.8018   21.0118   19.3503 Cl     28  UNL28      -0.0870
    693 CL         12.4253   23.5719   19.5398 Cl     28  UNL28      -0.0870
    694 C          13.8677   22.7345   18.9420 C.3    28  UNL28       0.1805
    695 H          13.8940   22.8292   17.8534 H      28  UNL28       0.0806
    696 CL         12.3017   23.4145   23.3871 Cl     28  UNL28      -0.0870
    697 CL         15.2145   23.4197   23.3871 Cl     28  UNL28      -0.0870
    698 CL         13.7624   20.8945   23.3870 Cl     28  UNL28      -0.0870
    699 C          13.7596   22.5764   22.8296 C.3    28  UNL28       0.1805
    700 H          13.7595   22.5764   21.7366 H      28  UNL28       0.0806
    701 CL         13.7692   20.9107   27.3195 Cl     28  UNL28      -0.0870
    702 CL         12.2891   23.4169   27.2074 Cl     28  UNL28      -0.0870
    703 CL         15.2012   23.4465   27.2647 Cl     28  UNL28      -0.0870
    704 C          13.7642   22.5730   26.7068 C.3    28  UNL28       0.1805
    705 H          13.7861   22.5370   25.6146 H      28  UNL28       0.0806
    706 CL         14.5093   22.3461   31.6426 Cl     28  UNL28      -0.0870
    707 CL         12.5932   24.5349   31.7893 Cl     28  UNL28      -0.0870
    708 CL         11.8750   22.0589   30.4334 Cl     28  UNL28      -0.0870
    709 C          12.7949   22.7749   31.7677 C.3    28  UNL28       0.1805
    710 H          12.4075   22.3727   32.7072 H      28  UNL28       0.0806
    711 CL         12.5738   26.8410    6.8681 Cl     28  UNL28      -0.0870
    712 CL         15.4402   26.3244    6.8414 Cl     28  UNL28      -0.0870
    713 CL         13.6858   24.7153    8.5200 Cl     28  UNL28      -0.0870
    714 C          13.8309   25.5988    6.9911 C.3    28  UNL28       0.1805
    715 H          13.6955   24.8901    6.1701 H      28  UNL28       0.0806
    716 CL         11.8022   29.8561   21.9964 Cl     28  UNL28      -0.0870
    717 CL         14.3326   28.6672   21.1792 Cl     28  UNL28      -0.0870
    718 CL         11.9997   26.9762   21.6073 Cl     28  UNL28      -0.0870
    719 C          12.5681   28.5624   21.0592 C.3    28  UNL28       0.1805
    720 H          12.2868   28.6849   20.0102 H      28  UNL28       0.0806
    721 CL         12.7489   27.5746   30.0621 Cl     28  UNL28      -0.0870
    722 CL         10.4026   28.1439   31.6915 Cl     28  UNL28      -0.0870
    723 CL         12.6900   29.9464   31.7519 Cl     28  UNL28      -0.0870
    724 C          11.7268   28.8484   30.7489 C.3    28  UNL28       0.1805
    725 H          11.2951   29.4239   29.9260 H      28  UNL28       0.0806
    726 CL         19.8814    1.5564   -1.2104 Cl     28  UNL28      -0.0870
    727 CL         21.8149   -0.0691    0.2400 Cl     28  UNL28      -0.0870
    728 CL         22.4590    2.6847   -0.4576 Cl     28  UNL28      -0.0870
    729 C          21.1681    1.5637    0.0074 C.3    28  UNL28       0.1805
    730 H          20.7425    1.9034    0.9552 H      28  UNL28       0.0806
    731 CL         18.7745   -1.0757    4.2289 Cl     28  UNL28      -0.0870
    732 CL         20.2277    1.4473    4.3119 Cl     28  UNL28      -0.0870
    733 CL         21.6854   -1.0745    4.3332 Cl     28  UNL28      -0.0870
    734 C          20.2491   -0.2274    3.7343 C.3    28  UNL28       0.1805
    735 H          20.2882   -0.2141    2.6420 H      28  UNL28       0.0806
    736 CL         20.5521   -1.8294    8.2488 Cl     28  UNL28      -0.0870
    737 CL         18.7768    0.4773    8.3557 Cl     28  UNL28      -0.0870
    738 CL         21.6138    0.8469    7.8083 Cl     28  UNL28      -0.0870
    739 C          20.2153   -0.2191    7.5913 C.3    28  UNL28       0.1805
    740 H          20.0216   -0.3186    6.5203 H      28  UNL28       0.0806
    741 CL         21.9205    2.8717   11.6765 Cl     28  UNL28      -0.0870
    742 CL         20.3977    0.3976   11.4665 Cl     28  UNL28      -0.0870
    743 CL         19.0089    2.9468   11.7068 Cl     28  UNL28      -0.0870
    744 C          20.4379    2.1218   11.0614 C.3    28  UNL28       0.1805
    745 H          20.4292    2.2197    9.9728 H      28  UNL28       0.0806
    746 CL         21.6174    2.7874   15.8676 Cl     28  UNL28      -0.0870
    747 CL         21.0414    0.0311   15.1222 Cl     28  UNL28      -0.0870
    748 CL         18.8574    1.8747   15.6846 Cl     28  UNL28      -0.0870
    749 C          20.4921    1.7124   15.0208 C.3    28  UNL28       0.1805
    750 H          20.4660    2.0029   13.9674 H      28  UNL28       0.0806
    751 CL         21.5257    2.6452   19.1972 Cl     28  UNL28      -0.0870
    752 CL         21.2098   -0.2069   19.6975 Cl     28  UNL28      -0.0870
    753 CL         18.8613    1.4746   19.3199 Cl     28  UNL28      -0.0870
    754 C          20.5502    1.2060   18.8564 C.3    28  UNL28       0.1805
    755 H          20.5853    1.0136   17.7810 H      28  UNL28       0.0806
    756 CL         21.5603    2.4177   23.5286 Cl     28  UNL28      -0.0870
    757 CL         20.9478   -0.3981   23.1042 Cl     28  UNL28      -0.0870
    758 CL         18.8019    1.4914   23.6607 Cl     28  UNL28      -0.0870
    759 C          20.3787    1.2652   22.8849 C.3    28  UNL28       0.1805
    760 H          20.2649    1.4515   21.8139 H      28  UNL28       0.0806
    761 CL         20.9194    2.2625   28.9425 Cl     28  UNL28      -0.0870
    762 CL         21.2025    0.7599   26.4634 Cl     28  UNL28      -0.0870
    763 CL         18.9974    0.1780   28.2756 Cl     28  UNL28      -0.0870
    764 C          20.0571    1.4426   27.6299 C.3    28  UNL28       0.1805
    765 H          19.4375    2.1796   27.1126 H      28  UNL28       0.0806
    766 CL         20.2234    2.9913   32.6345 Cl     28  UNL28      -0.0870
    767 CL         19.6565    0.3367   31.5781 Cl     28  UNL28      -0.0870
    768 CL         17.5123    1.9313   32.7376 Cl     28  UNL28      -0.0870
    769 C          19.0251    1.9747   31.8163 C.3    28  UNL28       0.1805
    770 H          18.8178    2.4095   30.8351 H      28  UNL28       0.0806
    771 CL         18.0470    6.5012    2.8389 Cl     28  UNL28      -0.0870
    772 CL         19.7107    4.4955    1.5376 Cl     28  UNL28      -0.0870
    773 CL         20.7198    7.2015    1.9171 Cl     28  UNL28      -0.0870
    774 C          19.7019    5.9184    2.5929 C.3    28  UNL28       0.1805
    775 H          20.1124    5.6292    3.5638 H      28  UNL28       0.0806
    776 CL         18.4619    8.4269    6.5630 Cl     28  UNL28      -0.0870
    777 CL         21.0742    7.1764    6.8735 Cl     28  UNL28      -0.0870
    778 CL         18.7634    5.5604    6.1431 Cl     28  UNL28      -0.0870
    779 C          19.5406    7.1450    5.9870 C.3    28  UNL28       0.1805
    780 H          19.7511    7.3221    4.9292 H      28  UNL28       0.0806
    781 CL         18.8021    7.5459    9.8793 Cl     28  UNL28      -0.0870
    782 CL         17.8300    6.2601   12.3054 Cl     28  UNL28      -0.0870
    783 CL         20.6595    6.1361   11.6247 Cl     28  UNL28      -0.0870
    784 C          19.1863    7.1180   11.5550 C.3    28  UNL28       0.1805
    785 H          19.3613    8.0407   12.1141 H      28  UNL28       0.0806
    786 CL         21.2896    7.1937   16.0177 Cl     28  UNL28      -0.0870
    787 CL         19.2060    5.3122   15.2414 Cl     28  UNL28      -0.0870
    788 CL         18.5188    8.0762   15.8517 Cl     28  UNL28      -0.0870
    789 C          19.7471    6.9975   15.1685 C.3    28  UNL28       0.1805
    790 H          19.8955    7.2661   14.1194 H      28  UNL28       0.0806
    791 CL         18.7230    5.0323   19.6368 Cl     28  UNL28      -0.0870
    792 CL         18.1537    7.8778   19.3856 Cl     28  UNL28      -0.0870
    793 CL         20.9122    6.9442   19.4471 Cl     28  UNL28      -0.0870
    794 C          19.2584    6.5682   18.9346 C.3    28  UNL28       0.1805
    795 H          19.2495    6.4703   17.8460 H      28  UNL28       0.0806
    796 CL         18.7977    4.9576   23.0881 Cl     28  UNL28      -0.0870
    797 CL         18.2209    7.7729   23.5635 Cl     28  UNL28      -0.0870
    798 CL         20.9799    6.8402   23.5101 Cl     28  UNL28      -0.0870
    799 C          19.3550    6.6208   22.8388 C.3    28  UNL28       0.1805
    800 H          19.3986    6.8112   21.7634 H      28  UNL28       0.0806
    801 CL         19.0648    4.9489   27.6751 Cl     28  UNL28      -0.0870
    802 CL         18.2442    7.6824   27.0931 Cl     28  UNL28      -0.0870
    803 CL         21.0580    6.9438   26.9457 Cl     28  UNL28      -0.0870
    804 C          19.3924    6.3916   26.7004 C.3    28  UNL28       0.1805
    805 H          19.2685    6.1299   25.6465 H      28  UNL28       0.0806
    806 CL         18.6866    8.8793   30.4392 Cl     28  UNL28      -0.0870
    807 CL         17.6160    7.0497   32.4368 Cl     28  UNL28      -0.0870
    808 CL         19.9495    6.2898   30.8676 Cl     28  UNL28      -0.0870
    809 C          19.0836    7.6325   31.6336 C.3    28  UNL28       0.1805
    810 H          19.7365    8.0760   32.3896 H      28  UNL28       0.0806
    811 CL         19.7382   11.2691   -0.4745 Cl     28  UNL28      -0.0870
    812 CL         22.4590   11.3141   -1.5136 Cl     28  UNL28      -0.0870
    813 CL         21.4037   13.6282   -0.0936 Cl     28  UNL28      -0.0870
    814 C          21.3876   11.8604   -0.2127 C.3    28  UNL28       0.1805
    815 H          21.7547   11.4489    0.7310 H      28  UNL28       0.0806
    816 CL         22.1247   11.8511    3.5281 Cl     28  UNL28      -0.0870
    817 CL         22.4577    9.0715    4.3323 Cl     28  UNL28      -0.0870
    818 CL         19.7970   10.1177    3.7745 Cl     28  UNL28      -0.0870
    819 C          21.5137   10.1985    3.3436 C.3    28  UNL28       0.1805
    820 H          21.6192    9.9079    2.2952 H      28  UNL28       0.0806
    821 CL         21.4370   13.4303    7.4301 Cl     28  UNL28      -0.0870
    822 CL         21.1271   10.5450    7.6813 Cl     28  UNL28      -0.0870
    823 CL         18.7742   12.2516    7.4917 Cl     28  UNL28      -0.0870
    824 C          20.4552   12.0263    6.9792 C.3    28  UNL28       0.1805
    825 H          20.4728   11.9297    5.8906 H      28  UNL28       0.0806
    826 CL         20.3435   10.6277   11.4321 Cl     28  UNL28      -0.0870
    827 CL         19.0338   13.2294   11.4321 Cl     28  UNL28      -0.0870
    828 CL         21.9419   13.0627   11.4320 Cl     28  UNL28      -0.0870
    829 C          20.4396   12.3066   10.8746 C.3    28  UNL28       0.1805
    830 H          20.4396   12.3065    9.7816 H      28  UNL28       0.0806
    831 CL         21.5906   13.0237   15.6054 Cl     28  UNL28      -0.0870
    832 CL         21.0146   10.2674   14.8600 Cl     28  UNL28      -0.0870
    833 CL         18.8306   12.1110   15.4224 Cl     28  UNL28      -0.0870
    834 C          20.4654   11.9487   14.7586 C.3    28  UNL28       0.1805
    835 H          20.4392   12.2392   13.7052 H      28  UNL28       0.0806
    836 CL         21.3729   13.3013   19.4079 Cl     28  UNL28      -0.0870
    837 CL         20.8049   10.4555   19.6591 Cl     28  UNL28      -0.0870
    838 CL         18.6148   12.3667   19.4694 Cl     28  UNL28      -0.0870
    839 C          20.2688   11.9912   18.9569 C.3    28  UNL28       0.1805
    840 H          20.2777   11.8934   17.8684 H      28  UNL28       0.0806
    841 CL         20.9948   13.6227   23.6404 Cl     28  UNL28      -0.0870
    842 CL         21.1946   10.7601   23.1400 Cl     28  UNL28      -0.0870
    843 CL         18.5831   11.9940   23.5175 Cl     28  UNL28      -0.0870
    844 C          20.2225   12.2190   22.8842 C.3    28  UNL28       0.1805
    845 H          20.1536   12.4022   21.8088 H      28  UNL28       0.0806
    846 CL         21.3150   13.2522   28.2380 Cl     28  UNL28      -0.0870
    847 CL         21.1656   10.8140   26.6514 Cl     28  UNL28      -0.0870
    848 CL         18.7897   11.8198   28.0034 Cl     28  UNL28      -0.0870
    849 C          20.2945   12.2633   27.1800 C.3    28  UNL28       0.1805
    850 H          20.0415   12.8542   26.2959 H      28  UNL28       0.0806
    851 CL         19.9741   11.1820   32.7372 Cl     28  UNL28      -0.0870
    852 CL         17.4023   12.5467   32.6481 Cl     28  UNL28      -0.0870
    853 CL         19.7282   13.7369   31.3603 Cl     28  UNL28      -0.0870
    854 C          18.9095   12.2215   31.7755 C.3    28  UNL28       0.1805
    855 H          18.6639   11.6979   30.8480 H      28  UNL28       0.0806
    856 CL         20.6353   15.4588    3.4139 Cl     28  UNL28      -0.0870
    857 CL         19.0999   13.2072    2.3860 Cl     28  UNL28      -0.0870
    858 CL         17.7255   15.5029    3.5373 Cl     28  UNL28      -0.0870
    859 C          19.1360   14.9642    2.6101 C.3    28  UNL28       0.1805
    860 H          19.1015   15.4374    1.6255 H      28  UNL28       0.0806
    861 CL         18.1861   18.7162    6.5861 Cl     28  UNL28      -0.0870
    862 CL         20.9009   17.7155    6.9218 Cl     28  UNL28      -0.0870
    863 CL         18.6576   15.8577    6.8876 Cl     28  UNL28      -0.0870
    864 C          19.2982   17.3798    6.2455 C.3    28  UNL28       0.1805
    865 H          19.3960   17.2816    5.1613 H      28  UNL28       0.0806
    866 CL         18.8173   17.8694    9.7303 Cl     28  UNL28      -0.0870
    867 CL         17.7537   16.6749   12.1646 Cl     28  UNL28      -0.0870
    868 CL         20.5552   16.2984   11.4612 Cl     28  UNL28      -0.0870
    869 C          19.1752   17.4082   11.4030 C.3    28  UNL28       0.1805
    870 H          19.4366   18.3114   11.9603 H      28  UNL28       0.0806
    871 CL         21.0580   17.8387   15.9411 Cl     28  UNL28      -0.0870
    872 CL         19.2722   15.5402   15.8330 Cl     28  UNL28      -0.0870
    873 CL         18.2229   18.2217   15.3937 Cl     28  UNL28      -0.0870
    874 C          19.6163   17.1492   15.1763 C.3    28  UNL28       0.1805
    875 H          19.8097   17.0494   14.1052 H      28  UNL28       0.0806
    876 CL         18.7634   15.8616   19.3518 Cl     28  UNL28      -0.0870
    877 CL         18.2352   18.7026   19.7179 Cl     28  UNL28      -0.0870
    878 CL         20.9766   17.7522   19.4607 Cl     28  UNL28      -0.0870
    879 C          19.2959   17.5047   18.9573 C.3    28  UNL28       0.1805
    880 H          19.2390   17.6336   17.8735 H      28  UNL28       0.0806
    881 CL         18.6225   15.8638   23.5599 Cl     28  UNL28      -0.0870
    882 CL         17.7780   18.6470   23.4090 Cl     28  UNL28      -0.0870
    883 CL         20.5974   17.9641   23.1463 Cl     28  UNL28      -0.0870
    884 C          18.9359   17.4424   22.8201 C.3    28  UNL28       0.1805
    885 H          18.8118   17.3461   21.7384 H      28  UNL28       0.0806
    886 CL         18.9718   15.6316   27.1976 Cl     28  UNL28      -0.0870
    887 CL         18.1049   18.4115   27.1278 Cl     28  UNL28      -0.0870
    888 CL         20.8356   17.7563   27.9016 Cl     28  UNL28      -0.0870
    889 C          19.4638   17.3029   26.8761 C.3    28  UNL28       0.1805
    890 H          19.7770   17.3743   25.8314 H      28  UNL28       0.0806
    891 CL         18.1657   16.6954   30.9095 Cl     28  UNL28      -0.0870
    892 CL         18.5192   18.9353   32.7376 Cl     28  UNL28      -0.0870
    893 CL         20.6212   16.9384   32.4572 Cl     28  UNL28      -0.0870
    894 C          19.3313   17.8222   31.6240 C.3    28  UNL28       0.1805
    895 H          19.7809   18.4085   30.8185 H      28  UNL28       0.0806
    896 CL         19.2357   21.7915    0.1086 Cl     28  UNL28      -0.0870
    897 CL         20.7014   24.0357    1.2487 Cl     28  UNL28      -0.0870
    898 CL         22.0682   22.1306   -0.4797 Cl     28  UNL28      -0.0870
    899 C          20.5389   22.9631   -0.1519 C.3    28  UNL28       0.1805
    900 H          20.2850   23.5716   -1.0236 H      28  UNL28       0.0806
    901 CL         20.5423   19.7938    4.1969 Cl     28  UNL28      -0.0870
    902 CL         19.2326   22.3850    3.9630 Cl     28  UNL28      -0.0870
    903 CL         22.1407   22.2189    3.9779 Cl     28  UNL28      -0.0870
    904 C          20.6384   21.4158    3.4907 C.3    28  UNL28       0.1805
    905 H          20.6384   21.3175    2.4022 H      28  UNL28       0.0806
    906 CL         21.8887   23.6107    8.0964 Cl     28  UNL28      -0.0870
    907 CL         20.3659   21.1366    7.8864 Cl     28  UNL28      -0.0870
    908 CL         18.9771   23.6858    8.1267 Cl     28  UNL28      -0.0870
    909 C          20.4061   22.8608    7.4813 C.3    28  UNL28       0.1805
    910 H          20.3974   22.9587    6.3927 H      28  UNL28       0.0806
    911 CL         21.7515   23.5721   11.7483 Cl     28  UNL28      -0.0870
    912 CL         20.6833   20.8739   11.9994 Cl     28  UNL28      -0.0870
    913 CL         18.8707   23.1463   11.8098 Cl     28  UNL28      -0.0870
    914 C          20.4307   22.4808   11.2973 C.3    28  UNL28       0.1805
    915 H          20.4220   22.3830   10.2087 H      28  UNL28       0.0806
    916 CL         21.8875   23.4369   15.7769 Cl     28  UNL28      -0.0870
    917 CL         20.1277   21.1188   15.8933 Cl     28  UNL28      -0.0870
    918 CL         19.0057   23.7824   15.5313 Cl     28  UNL28      -0.0870
    919 C          20.3805   22.7210   15.1809 C.3    28  UNL28       0.1805
    920 H          20.4592   22.6069   14.0967 H      28  UNL28       0.0806
    921 CL         21.7128   23.9674   19.5185 Cl     28  UNL28      -0.0870
    922 CL         20.4271   21.3585   19.6748 Cl     28  UNL28      -0.0870
    923 CL         18.8175   23.7840   19.7784 Cl     28  UNL28      -0.0870
    924 C          20.2699   23.0276   19.1020 C.3    28  UNL28       0.1805
    925 H          20.1733   23.0100   18.0134 H      28  UNL28       0.0806
    926 CL         22.0218   23.4145   23.5222 Cl     28  UNL28      -0.0870
    927 CL         20.0868   21.2430   23.6785 Cl     28  UNL28      -0.0870
    928 CL         19.1824   24.0100   23.7821 Cl     28  UNL28      -0.0870
    929 C          20.3805   22.8936   23.1057 C.3    28  UNL28       0.1805
    930 H          20.2827   22.9024   22.0171 H      28  UNL28       0.0806
    931 CL         21.7646   23.6711   27.8395 Cl     28  UNL28      -0.0870
    932 CL         20.2706   21.1901   27.5282 Cl     28  UNL28      -0.0870
    933 CL         18.8995   23.7518   27.3215 Cl     28  UNL28      -0.0870
    934 C          20.4110   22.8798   27.0146 C.3    28  UNL28       0.1805
    935 H          20.6060   22.8975   25.9393 H      28  UNL28       0.0806
    936 CL         19.2338   24.5176   32.3452 Cl     28  UNL28      -0.0870
    937 CL         20.6841   21.9984   32.5312 Cl     28  UNL28      -0.0870
    938 CL         17.9918   22.0504   31.4207 Cl     28  UNL28      -0.0870
    939 C          19.5148   22.9397   31.5902 C.3    28  UNL28       0.1805
    940 H          19.9295   23.1048   30.5925 H      28  UNL28       0.0806
    941 CL         19.9172   27.1776   -0.1867 Cl     28  UNL28      -0.0870
    942 CL         21.2550   29.7386    0.1812 Cl     28  UNL28      -0.0870
    943 CL         18.8460   29.5746   -1.4480 Cl     28  UNL28      -0.0870
    944 C          19.6942   28.9284   -0.0330 C.3    28  UNL28       0.1805
    945 H          19.0824   29.1207    0.8521 H      28  UNL28       0.0806
    946 CL         18.4477   27.3429    2.9856 Cl     28  UNL28      -0.0870
    947 CL         21.3562   27.5005    2.9874 Cl     28  UNL28      -0.0870
    948 CL         19.7772   29.7089    4.0434 Cl     28  UNL28      -0.0870
    949 C          19.8727   27.9508    3.8449 C.3    28  UNL28       0.1805
    950 H          19.8968   27.4935    4.8374 H      28  UNL28       0.0806
    951 CL         22.0731   29.9986    7.7849 Cl     28  UNL28      -0.0870
    952 CL         21.7786   27.1026    7.8896 Cl     28  UNL28      -0.0870
    953 CL         19.4634   28.7832    7.3417 Cl     28  UNL28      -0.0870
    954 C          21.2122   28.5974    7.1258 C.3    28  UNL28       0.1805
    955 H          21.4220   28.5374    6.0549 H      28  UNL28       0.0806
    956 CL         20.9792   28.0064   11.4320 Cl     28  UNL28      -0.0870
    957 CL         18.2016   27.1575   11.6518 Cl     28  UNL28      -0.0870
    958 CL         18.9244   29.9282   12.1862 Cl     28  UNL28      -0.0870
    959 C          19.2878   28.4886   11.2193 C.3    28  UNL28       0.1805
    960 H          19.1297   28.7331   10.1658 H      28  UNL28       0.0806
    961 CL         18.7343   29.0682   15.7438 Cl     28  UNL28      -0.0870
    962 CL         21.4036   29.3465   14.6118 Cl     28  UNL28      -0.0870
    963 CL         20.6209   26.8547   15.9014 Cl     28  UNL28      -0.0870
    964 C          20.0662   28.2293   14.9308 C.3    28  UNL28       0.1805
    965 H          19.6999   27.8490   13.9738 H      28  UNL28       0.0806
    966 CL         20.8290   29.5318   27.3470 Cl     28  UNL28      -0.0870
    967 CL         19.0899   27.2330   27.7654 Cl     28  UNL28      -0.0870
    968 CL         17.9359   29.8643   27.2864 Cl     28  UNL28      -0.0870
    969 C          19.2850   28.7764   26.9178 C.3    28  UNL28       0.1805
    970 H          19.2851   28.5808   25.8425 H      28  UNL28       0.0806
    971 CL         17.7288   27.9176   32.6670 Cl     28  UNL28      -0.0870
    972 CL         19.1292   29.3181   30.5313 Cl     28  UNL28      -0.0870
    973 CL         20.6206   27.6740   32.4174 Cl     28  UNL28      -0.0870
    974 C          19.0935   27.8612   31.5387 C.3    28  UNL28       0.1805
    975 H          18.9641   26.9945   30.8856 H      28  UNL28       0.0806
@<TRIPOS>BOND
     1     1     4    1
     2     2     4    1
     3     3     4    1
     4     4     5    1
     5     6     9    1
     6     7     9    1
     7     8     9    1
     8     9    10    1
     9    11    14    1
    10    12    14    1
    11    13    14    1
    12    14    15    1
    13    16    19    1
    14    17    19    1
    15    18    19    1
    16    19    20    1
    17    21    24    1
    18    22    24    1
    19    23    24    1
    20    24    25    1
    21    26    29    1
    22    27    29    1
    23    28    29    1
    24    29    30    1
    25    31    34    1
    26    32    34    1
    27    33    34    1
    28    34    35    1
    29    36    39    1
    30    37    39    1
    31    38    39    1
    32    39    40    1
    33    41    44    1
    34    42    44    1
    35    43    44    1
    36    44    45    1
    37    46    49    1
    38    47    49    1
    39    48    49    1
    40    49    50    1
    41    51    54    1
    42    52    54    1
    43    53    54    1
    44    54    55    1
    45    56    59    1
    46    57    59    1
    47    58    59    1
    48    59    60    1
    49    61    64    1
    50    62    64    1
    51    63    64    1
    52    64    65    1
    53    66    69    1
    54    67    69    1
    55    68    69    1
    56    69    70    1
    57    71    74    1
    58    72    74    1
    59    73    74    1
    60    74    75    1
    61    76    79    1
    62    77    79    1
    63    78    79    1
    64    79    80    1
    65    81    84    1
    66    82    84    1
    67    83    84    1
    68    84    85    1
    69    86    89    1
    70    87    89    1
    71    88    89    1
    72    89    90    1
    73    91    94    1
    74    92    94    1
    75    93    94    1
    76    94    95    1
    77    96    99    1
    78    97    99    1
    79    98    99    1
    80    99   100    1
    81   101   104    1
    82   102   104    1
    83   103   104    1
    84   104   105    1
    85   106   109    1
    86   107   109    1
    87   108   109    1
    88   109   110    1
    89   111   114    1
    90   112   114    1
    91   113   114    1
    92   114   115    1
    93   116   119    1
    94   117   119    1
    95   118   119    1
    96   119   120    1
    97   121   124    1
    98   122   124    1
    99   123   124    1
   100   124   125    1
   101   126   129    1
   102   127   129    1
   103   128   129    1
   104   129   130    1
   105   131   134    1
   106   132   134    1
   107   133   134    1
   108   134   135    1
   109   136   139    1
   110   137   139    1
   111   138   139    1
   112   139   140    1
   113   141   144    1
   114   142   144    1
   115   143   144    1
   116   144   145    1
   117   146   149    1
   118   147   149    1
   119   148   149    1
   120   149   150    1
   121   151   154    1
   122   152   154    1
   123   153   154    1
   124   154   155    1
   125   156   159    1
   126   157   159    1
   127   158   159    1
   128   159   160    1
   129   161   164    1
   130   162   164    1
   131   163   164    1
   132   164   165    1
   133   166   169    1
   134   167   169    1
   135   168   169    1
   136   169   170    1
   137   171   174    1
   138   172   174    1
   139   173   174    1
   140   174   175    1
   141   176   179    1
   142   177   179    1
   143   178   179    1
   144   179   180    1
   145   181   184    1
   146   182   184    1
   147   183   184    1
   148   184   185    1
   149   186   189    1
   150   187   189    1
   151   188   189    1
   152   189   190    1
   153   191   194    1
   154   192   194    1
   155   193   194    1
   156   194   195    1
   157   196   199    1
   158   197   199    1
   159   198   199    1
   160   199   200    1
   161   201   204    1
   162   202   204    1
   163   203   204    1
   164   204   205    1
   165   206   209    1
   166   207   209    1
   167   208   209    1
   168   209   210    1
   169   211   214    1
   170   212   214    1
   171   213   214    1
   172   214   215    1
   173   216   219    1
   174   217   219    1
   175   218   219    1
   176   219   220    1
   177   221   224    1
   178   222   224    1
   179   223   224    1
   180   224   225    1
   181   226   229    1
   182   227   229    1
   183   228   229    1
   184   229   230    1
   185   231   234    1
   186   232   234    1
   187   233   234    1
   188   234   235    1
   189   236   239    1
   190   237   239    1
   191   238   239    1
   192   239   240    1
   193   241   244    1
   194   242   244    1
   195   243   244    1
   196   244   245    1
   197   246   249    1
   198   247   249    1
   199   248   249    1
   200   249   250    1
   201   251   254    1
   202   252   254    1
   203   253   254    1
   204   254   255    1
   205   256   259    1
   206   257   259    1
   207   258   259    1
   208   259   260    1
   209   261   264    1
   210   262   264    1
   211   263   264    1
   212   264   265    1
   213   266   269    1
   214   267   269    1
   215   268   269    1
   216   269   270    1
   217   271   274    1
   218   272   274    1
   219   273   274    1
   220   274   275    1
   221   276   279    1
   222   277   279    1
   223   278   279    1
   224   279   280    1
   225   281   284    1
   226   282   284    1
   227   283   284    1
   228   284   285    1
   229   286   289    1
   230   287   289    1
   231   288   289    1
   232   289   290    1
   233   291   294    1
   234   292   294    1
   235   293   294    1
   236   294   295    1
   237   296   299    1
   238   297   299    1
   239   298   299    1
   240   299   300    1
   241   301   304    1
   242   302   304    1
   243   303   304    1
   244   304   305    1
   245   306   309    1
   246   307   309    1
   247   308   309    1
   248   309   310    1
   249   311   314    1
   250   312   314    1
   251   313   314    1
   252   314   315    1
   253   316   319    1
   254   317   319    1
   255   318   319    1
   256   319   320    1
   257   321   324    1
   258   322   324    1
   259   323   324    1
   260   324   325    1
   261   326   329    1
   262   327   329    1
   263   328   329    1
   264   329   330    1
   265   331   334    1
   266   332   334    1
   267   333   334    1
   268   334   335    1
   269   336   339    1
   270   337   339    1
   271   338   339    1
   272   339   340    1
   273   341   344    1
   274   342   344    1
   275   343   344    1
   276   344   345    1
   277   346   349    1
   278   347   349    1
   279   348   349    1
   280   349   350    1
   281   351   354    1
   282   352   354    1
   283   353   354    1
   284   354   355    1
   285   356   359    1
   286   357   359    1
   287   358   359    1
   288   359   360    1
   289   361   364    1
   290   362   364    1
   291   363   364    1
   292   364   365    1
   293   366   369    1
   294   367   369    1
   295   368   369    1
   296   369   370    1
   297   371   374    1
   298   372   374    1
   299   373   374    1
   300   374   375    1
   301   376   379    1
   302   377   379    1
   303   378   379    1
   304   379   380    1
   305   381   384    1
   306   382   384    1
   307   383   384    1
   308   384   385    1
   309   386   389    1
   310   387   389    1
   311   388   389    1
   312   389   390    1
   313   391   394    1
   314   392   394    1
   315   393   394    1
   316   394   395    1
   317   396   399    1
   318   397   399    1
   319   398   399    1
   320   399   400    1
   321   401   404    1
   322   402   404    1
   323   403   404    1
   324   404   405    1
   325   406   409    1
   326   407   409    1
   327   408   409    1
   328   409   410    1
   329   411   414    1
   330   412   414    1
   331   413   414    1
   332   414   415    1
   333   416   419    1
   334   417   419    1
   335   418   419    1
   336   419   420    1
   337   421   424    1
   338   422   424    1
   339   423   424    1
   340   424   425    1
   341   426   429    1
   342   427   429    1
   343   428   429    1
   344   429   430    1
   345   431   434    1
   346   432   434    1
   347   433   434    1
   348   434   435    1
   349   436   439    1
   350   437   439    1
   351   438   439    1
   352   439   440    1
   353   441   444    1
   354   442   444    1
   355   443   444    1
   356   444   445    1
   357   446   449    1
   358   447   449    1
   359   448   449    1
   360   449   450    1
   361   451   454    1
   362   452   454    1
   363   453   454    1
   364   454   455    1
   365   456   459    1
   366   457   459    1
   367   458   459    1
   368   459   460    1
   369   461   464    1
   370   462   464    1
   371   463   464    1
   372   464   465    1
   373   466   469    1
   374   467   469    1
   375   468   469    1
   376   469   470    1
   377   471   474    1
   378   472   474    1
   379   473   474    1
   380   474   475    1
   381   476   479    1
   382   477   479    1
   383   478   479    1
   384   479   480    1
   385   481   484    1
   386   482   484    1
   387   483   484    1
   388   484   485    1
   389   486   489    1
   390   487   489    1
   391   488   489    1
   392   489   490    1
   393   491   494    1
   394   492   494    1
   395   493   494    1
   396   494   495    1
   397   496   499    1
   398   497   499    1
   399   498   499    1
   400   499   500    1
   401   501   504    1
   402   502   504    1
   403   503   504    1
   404   504   505    1
   405   506   509    1
   406   507   509    1
   407   508   509    1
   408   509   510    1
   409   511   514    1
   410   512   514    1
   411   513   514    1
   412   514   515    1
   413   516   519    1
   414   517   519    1
   415   518   519    1
   416   519   520    1
   417   521   524    1
   418   522   524    1
   419   523   524    1
   420   524   525    1
   421   526   529    1
   422   527   529    1
   423   528   529    1
   424   529   530    1
   425   531   534    1
   426   532   534    1
   427   533   534    1
   428   534   535    1
   429   536   539    1
   430   537   539    1
   431   538   539    1
   432   539   540    1
   433   541   544    1
   434   542   544    1
   435   543   544    1
   436   544   545    1
   437   546   549    1
   438   547   549    1
   439   548   549    1
   440   549   550    1
   441   551   554    1
   442   552   554    1
   443   553   554    1
   444   554   555    1
   445   556   559    1
   446   557   559    1
   447   558   559    1
   448   559   560    1
   449   561   564    1
   450   562   564    1
   451   563   564    1
   452   564   565    1
   453   566   569    1
   454   567   569    1
   455   568   569    1
   456   569   570    1
   457   571   574    1
   458   572   574    1
   459   573   574    1
   460   574   575    1
   461   576   579    1
   462   577   579    1
   463   578   579    1
   464   579   580    1
   465   581   584    1
   466   582   584    1
   467   583   584    1
   468   584   585    1
   469   586   589    1
   470   587   589    1
   471   588   589    1
   472   589   590    1
   473   591   594    1
   474   592   594    1
   475   593   594    1
   476   594   595    1
   477   596   599    1
   478   597   599    1
   479   598   599    1
   480   599   600    1
   481   601   604    1
   482   602   604    1
   483   603   604    1
   484   604   605    1
   485   606   609    1
   486   607   609    1
   487   608   609    1
   488   609   610    1
   489   611   614    1
   490   612   614    1
   491   613   614    1
   492   614   615    1
   493   616   619    1
   494   617   619    1
   495   618   619    1
   496   619   620    1
   497   621   624    1
   498   622   624    1
   499   623   624    1
   500   624   625    1
   501   626   629    1
   502   627   629    1
   503   628   629    1
   504   629   630    1
   505   631   634    1
   506   632   634    1
   507   633   634    1
   508   634   635    1
   509   636   639    1
   510   637   639    1
   511   638   639    1
   512   639   640    1
   513   641   644    1
   514   642   644    1
   515   643   644    1
   516   644   645    1
   517   646   649    1
   518   647   649    1
   519   648   649    1
   520   649   650    1
   521   651   654    1
   522   652   654    1
   523   653   654    1
   524   654   655    1
   525   656   659    1
   526   657   659    1
   527   658   659    1
   528   659   660    1
   529   661   664    1
   530   662   664    1
   531   663   664    1
   532   664   665    1
   533   666   669    1
   534   667   669    1
   535   668   669    1
   536   669   670    1
   537   671   674    1
   538   672   674    1
   539   673   674    1
   540   674   675    1
   541   676   679    1
   542   677   679    1
   543   678   679    1
   544   679   680    1
   545   681   684    1
   546   682   684    1
   547   683   684    1
   548   684   685    1
   549   686   689    1
   550   687   689    1
   551   688   689    1
   552   689   690    1
   553   691   694    1
   554   692   694    1
   555   693   694    1
   556   694   695    1
   557   696   699    1
   558   697   699    1
   559   698   699    1
   560   699   700    1
   561   701   704    1
   562   702   704    1
   563   703   704    1
   564   704   705    1
   565   706   709    1
   566   707   709    1
   567   708   709    1
   568   709   710    1
   569   711   714    1
   570   712   714    1
   571   713   714    1
   572   714   715    1
   573   716   719    1
   574   717   719    1
   575   718   719    1
   576   719   720    1
   577   721   724    1
   578   722   724    1
   579   723   724    1
   580   724   725    1
   581   726   729    1
   582   727   729    1
   583   728   729    1
   584   729   730    1
   585   731   734    1
   586   732   734    1
   587   733   734    1
   588   734   735    1
   589   736   739    1
   590   737   739    1
   591   738   739    1
   592   739   740    1
   593   741   744    1
   594   742   744    1
   595   743   744    1
   596   744   745    1
   597   746   749    1
   598   747   749    1
   599   748   749    1
   600   749   750    1
   601   751   754    1
   602   752   754    1
   603   753   754    1
   604   754   755    1
   605   756   759    1
   606   757   759    1
   607   758   759    1
   608   759   760    1
   609   761   764    1
   610   762   764    1
   611   763   764    1
   612   764   765    1
   613   766   769    1
   614   767   769    1
   615   768   769    1
   616   769   770    1
   617   771   774    1
   618   772   774    1
   619   773   774    1
   620   774   775    1
   621   776   779    1
   622   777   779    1
   623   778   779    1
   624   779   780    1
   625   781   784    1
   626   782   784    1
   627   783   784    1
   628   784   785    1
   629   786   789    1
   630   787   789    1
   631   788   789    1
   632   789   790    1
   633   791   794    1
   634   792   794    1
   635   793   794    1
   636   794   795    1
   637   796   799    1
   638   797   799    1
   639   798   799    1
   640   799   800    1
   641   801   804    1
   642   802   804    1
   643   803   804    1
   644   804   805    1
   645   806   809    1
   646   807   809    1
   647   808   809    1
   648   809   810    1
   649   811   814    1
   650   812   814    1
   651   813   814    1
   652   814   815    1
   653   816   819    1
   654   817   819    1
   655   818   819    1
   656   819   820    1
   657   821   824    1
   658   822   824    1
   659   823   824    1
   660   824   825    1
   661   826   829    1
   662   827   829    1
   663   828   829    1
   664   829   830    1
   665   831   834    1
   666   832   834    1
   667   833   834    1
   668   834   835    1
   669   836   839    1
   670   837   839    1
   671   838   839    1
   672   839   840    1
   673   841   844    1
   674   842   844    1
   675   843   844    1
   676   844   845    1
   677   846   849    1
   678   847   849    1
   679   848   849    1
   680   849   850    1
   681   851   854    1
   682   852   854    1
   683   853   854    1
   684   854   855    1
   685   856   859    1
   686   857   859    1
   687   858   859    1
   688   859   860    1
   689   861   864    1
   690   862   864    1
   691   863   864    1
   692   864   865    1
   693   866   869    1
   694   867   869    1
   695   868   869    1
   696   869   870    1
   697   871   874    1
   698   872   874    1
   699   873   874    1
   700   874   875    1
   701   876   879    1
   702   877   879    1
   703   878   879    1
   704   879   880    1
   705   881   884    1
   706   882   884    1
   707   883   884    1
   708   884   885    1
   709   886   889    1
   710   887   889    1
   711   888   889    1
   712   889   890    1
   713   891   894    1
   714   892   894    1
   715   893   894    1
   716   894   895    1
   717   896   899    1
   718   897   899    1
   719   898   899    1
   720   899   900    1
   721   901   904    1
   722   902   904    1
   723   903   904    1
   724   904   905    1
   725   906   909    1
   726   907   909    1
   727   908   909    1
   728   909   910    1
   729   911   914    1
   730   912   914    1
   731   913   914    1
   732   914   915    1
   733   916   919    1
   734   917   919    1
   735   918   919    1
   736   919   920    1
   737   921   924    1
   738   922   924    1
   739   923   924    1
   740   924   925    1
   741   926   929    1
   742   927   929    1
   743   928   929    1
   744   929   930    1
   745   931   934    1
   746   932   934    1
   747   933   934    1
   748   934   935    1
   749   936   939    1
   750   937   939    1
   751   938   939    1
   752   939   940    1
   753   941   944    1
   754   942   944    1
   755   943   944    1
   756   944   945    1
   757   946   949    1
   758   947   949    1
   759   948   949    1
   760   949   950    1
   761   951   954    1
   762   952   954    1
   763   953   954    1
   764   954   955    1
   765   956   959    1
   766   957   959    1
   767   958   959    1
   768   959   960    1
   769   961   964    1
   770   962   964    1
   771   963   964    1
   772   964   965    1
   773   966   969    1
   774   967   969    1
   775   968   969    1
   776   969   970    1
   777   971   974    1
   778   972   974    1
   779   973   974    1
   780   974   975    1
