@<TRIPOS>MOLECULE
*****
 430 344 0 0 0
SMALL
GASTEIGER

@<TRIPOS>ATOM
      1 CL         -2.9343    1.9977   -0.8108 Cl      1  UNL1       -0.0870
      2 CL         -0.0661    1.4899   -0.8108 Cl      1  UNL1       -0.0870
      3 CL         -1.9401   -0.7401   -0.8109 Cl      1  UNL1       -0.0870
      4 C          -1.6467    0.9159   -1.3683 C.3     1  UNL1        0.1805
      5 H          -1.6468    0.9160   -2.4613 H       1  UNL1        0.0806
      6 CL         -2.2314    2.6934    1.1772 Cl      2  UNL2       -0.0870
      7 CL         -0.5893    0.3181    1.5585 Cl      2  UNL2       -0.0870
      8 CL         -2.9326    0.7530    3.2332 Cl      2  UNL2       -0.0870
      9 C          -2.2321    0.9784    1.6214 C.3     2  UNL2        0.1805
     10 H          -2.8485    0.4365    0.8996 H       2  UNL2        0.0806
     11 CL         -2.2514    3.1138    5.0899 Cl      3  UNL3       -0.0870
     12 CL          0.4569    2.0415    5.0899 Cl      3  UNL3       -0.0870
     13 CL         -1.8260    0.2322    5.0898 Cl      3  UNL3       -0.0870
     14 C          -1.2067    1.7959    4.5324 C.3     3  UNL3        0.1805
     15 H          -1.2068    1.7960    3.4394 H       3  UNL3        0.0806
     16 CL          0.4172    1.5422   11.3906 Cl      4  UNL4       -0.0870
     17 CL         -1.3219   -0.7945   11.3906 Cl      4  UNL4       -0.0870
     18 CL         -2.4759    1.8801   11.3905 Cl      4  UNL4       -0.0870
     19 C          -1.1268    0.8758   10.8331 C.3     4  UNL4        0.1805
     20 H          -1.1267    0.8759    9.7401 H       4  UNL4        0.0806
     21 CL         -2.0053    4.1177   18.8682 Cl      5  UNL5       -0.0870
     22 CL         -0.1114    3.6099   16.7142 Cl      5  UNL5       -0.0870
     23 CL         -1.3489    1.3799   18.1215 Cl      5  UNL5       -0.0870
     24 C          -1.5738    3.0359   17.5331 C.3     5  UNL5        0.1805
     25 H          -2.3947    3.0360   16.8115 H       5  UNL5        0.0806
     26 CL         -0.3049    2.8377   19.9009 Cl      6  UNL6       -0.0870
     27 CL         -2.9565    2.3299   20.9944 Cl      6  UNL6       -0.0870
     28 CL         -1.2240    0.0999   20.2801 Cl      6  UNL6       -0.0870
     29 C          -1.2827    1.7559   20.9072 C.3     6  UNL6        0.1805
     30 H          -0.8659    1.7560   21.9176 H       6  UNL6        0.0806
     31 CL         -1.4053    2.5577   25.2089 Cl      7  UNL7       -0.0870
     32 CL          0.4886    2.0499   23.0550 Cl      7  UNL7       -0.0870
     33 CL         -0.7489   -0.1801   24.4622 Cl      7  UNL7       -0.0870
     34 C          -0.9738    1.4759   23.8738 C.3     7  UNL7        0.1805
     35 H          -1.7947    1.4760   23.1522 H       7  UNL7        0.0806
     36 CL         -2.8543    1.0954   26.3714 Cl      8  UNL8       -0.0870
     37 CL          0.0139    1.1604   26.8749 Cl      8  UNL8       -0.0870
     38 CL         -1.8601    1.4457   29.0867 Cl      8  UNL8       -0.0870
     39 C          -1.5667    0.6810   27.5156 C.3     8  UNL8        0.1805
     40 H          -1.5668   -0.4031   27.6554 H       8  UNL8        0.0806
     41 CL          1.6011    0.1259    9.7106 Cl      9  UNL9       -0.0870
     42 CL          3.1137   -2.3633    9.7106 Cl      9  UNL9       -0.0870
     43 CL          0.2016   -2.4286    9.7105 Cl      9  UNL9       -0.0870
     44 C           1.6389   -1.5553    9.1531 C.3     9  UNL9        0.1805
     45 H           1.6389   -1.5552    8.0601 H       9  UNL9        0.0806
     46 CL          2.7547   -3.2151   13.0210 Cl     10  UNL10      -0.0870
     47 CL          0.4073   -1.4906   13.0210 Cl     10  UNL10      -0.0870
     48 CL          3.0747   -0.3200   13.0209 Cl     10  UNL10      -0.0870
     49 C           2.0788   -1.6753   12.4635 C.3    10  UNL10       0.1805
     50 H           2.0788   -1.6754   11.3705 H      10  UNL10       0.0806
     51 CL          1.4314   -0.4335   19.1217 Cl     11  UNL11      -0.0870
     52 CL          4.2995   -0.9412   19.1217 Cl     11  UNL11      -0.0870
     53 CL          2.4256   -3.1713   19.1216 Cl     11  UNL11      -0.0870
     54 C           2.7189   -1.5152   18.5642 C.3    11  UNL11       0.1805
     55 H           2.7188   -1.5152   17.4712 H      11  UNL11       0.0806
     56 CL          1.1268    2.9268    0.6275 Cl     12  UNL12      -0.0870
     57 CL          1.8273    1.3698    2.9874 Cl     12  UNL12      -0.0870
     58 CL          3.6473    1.4697    0.7153 Cl     12  UNL12      -0.0870
     59 C           2.4509    2.3687    1.6638 C.3    12  UNL12       0.1805
     60 H           2.9421    3.2444    2.0957 H      12  UNL12       0.0806
     61 CL          2.9427    1.6255    5.0675 Cl     13  UNL13      -0.0870
     62 CL          1.6330    4.1866    5.5255 Cl     13  UNL13      -0.0870
     63 CL          4.5411    4.0225    5.4960 Cl     13  UNL13      -0.0870
     64 C           3.0388    3.3763    4.8142 C.3    13  UNL13       0.1805
     65 H           3.0388    3.5686    3.7383 H      13  UNL13       0.0806
     66 CL          0.9200    2.8257    7.3511 Cl     14  UNL14      -0.0870
     67 CL          3.8081    2.9796    7.6966 Cl     14  UNL14      -0.0870
     68 CL          2.1160    2.1677    9.9242 Cl     14  UNL14      -0.0870
     69 C           2.3288    2.1252    8.1657 C.3    14  UNL14       0.1805
     70 H           2.4214    1.0812    7.8557 H      14  UNL14       0.0806
     71 CL          4.3532    1.9055   10.7958 Cl     15  UNL15      -0.0870
     72 CL          4.0665    4.4666    9.4383 Cl     15  UNL15      -0.0870
     73 CL          3.7236    4.3025   12.3262 Cl     15  UNL15      -0.0870
     74 C           4.5920    3.6563   10.9235 C.3    15  UNL15       0.1805
     75 H           5.6591    3.8486   11.0612 H      15  UNL15       0.0806
     76 CL          1.6227    2.9268   12.8900 Cl     16  UNL16      -0.0870
     77 CL          0.3130    1.3698   14.9744 Cl     16  UNL16      -0.0870
     78 CL          3.2211    1.4697   14.8409 Cl     16  UNL16      -0.0870
     79 C           1.7188    2.3687   14.5687 C.3    16  UNL16       0.1805
     80 H           1.7188    3.2444   15.2228 H      16  UNL16       0.0806
     81 CL          2.8227    2.4255   17.3089 Cl     17  UNL17      -0.0870
     82 CL          1.5130    4.9866   17.7669 Cl     17  UNL17      -0.0870
     83 CL          4.4211    4.8225   17.7374 Cl     17  UNL17      -0.0870
     84 C           2.9188    4.1763   17.0556 C.3    17  UNL17       0.1805
     85 H           2.9188    4.3686   15.9797 H      17  UNL17       0.0806
     86 CL          1.9265    2.6335   19.2707 Cl     18  UNL18      -0.0870
     87 CL          2.2310    0.6218   21.3551 Cl     18  UNL18      -0.0870
     88 CL          4.0763    2.8717   21.2216 Cl     18  UNL18      -0.0870
     89 C           2.4091    2.3371   20.9494 C.3    18  UNL18       0.1805
     90 H           1.7514    2.9154   21.6035 H      18  UNL18       0.0806
     91 CL          2.9027    0.9455   24.0896 Cl     19  UNL19      -0.0870
     92 CL          1.5930    3.5066   24.5476 Cl     19  UNL19      -0.0870
     93 CL          4.5011    3.3425   24.5182 Cl     19  UNL19      -0.0870
     94 C           2.9988    2.6963   23.8363 C.3    19  UNL19       0.1805
     95 H           2.9988    2.8886   22.7604 H      19  UNL19       0.0806
     96 CL          0.7914    3.5577   29.0624 Cl     20  UNL20      -0.0870
     97 CL          3.6595    3.0499   29.0624 Cl     20  UNL20      -0.0870
     98 CL          1.7856    0.8199   29.0623 Cl     20  UNL20      -0.0870
     99 C           2.0789    2.4759   28.5049 C.3    20  UNL20       0.1805
    100 H           2.0788    2.4760   27.4119 H      20  UNL20       0.0806
    101 CL          7.0287   -0.6303   -1.9732 Cl     21  UNL21      -0.0870
    102 CL          6.8002    2.2483   -1.5919 Cl     21  UNL21      -0.0870
    103 CL          8.6089    0.6963    0.0828 Cl     21  UNL21      -0.0870
    104 C           7.8899    0.8529   -1.5289 C.3    21  UNL21       0.1805
    105 H           8.6950    1.0123   -2.2507 H      21  UNL21       0.0806
    106 CL          5.9528    0.7970    1.8838 Cl     22  UNL22      -0.0870
    107 CL          5.7142    3.3987    0.5960 Cl     22  UNL22      -0.0870
    108 CL          6.2440    3.2320    3.4555 Cl     22  UNL22      -0.0870
    109 C           6.5185    2.4759    1.8768 C.3    22  UNL22       0.1805
    110 H           7.5932    2.4758    1.6777 H      22  UNL22       0.0806
    111 CL          5.7171    1.5977    5.2899 Cl     23  UNL23      -0.0870
    112 CL          8.5852    1.0899    5.2899 Cl     23  UNL23      -0.0870
    113 CL          6.7113   -1.1401    5.2898 Cl     23  UNL23      -0.0870
    114 C           7.0046    0.5159    4.7324 C.3    23  UNL23       0.1805
    115 H           7.0045    0.5160    3.6394 H      23  UNL23       0.0806
    116 CL          5.8771    1.7577    8.4003 Cl     24  UNL24      -0.0870
    117 CL          8.7452    1.2499    8.4003 Cl     24  UNL24      -0.0870
    118 CL          6.8713   -0.9801    8.4002 Cl     24  UNL24      -0.0870
    119 C           7.1646    0.6759    7.8428 C.3    24  UNL24       0.1805
    120 H           7.1645    0.6760    6.7498 H      24  UNL24       0.0806
    121 CL          6.4371    1.7577   11.5906 Cl     25  UNL25      -0.0870
    122 CL          9.3052    1.2499   11.5906 Cl     25  UNL25      -0.0870
    123 CL          7.4313   -0.9801   11.5905 Cl     25  UNL25      -0.0870
    124 C           7.7246    0.6759   11.0331 C.3    25  UNL25       0.1805
    125 H           7.7245    0.6760    9.9401 H      25  UNL25       0.0806
    126 CL          5.5971    2.0304   14.1821 Cl     26  UNL26      -0.0870
    127 CL          8.4652    2.4857   13.9574 Cl     26  UNL26      -0.0870
    128 CL          6.5913    4.4856   12.9706 Cl     26  UNL26      -0.0870
    129 C           6.8846    3.2471   14.2033 C.3    26  UNL26       0.1805
    130 H           6.8845    3.7307   15.1835 H      26  UNL26       0.0806
    131 CL          6.2227    2.4777   16.7744 Cl     27  UNL27      -0.0870
    132 CL          8.1166    1.9699   18.9284 Cl     27  UNL27      -0.0870
    133 CL          6.8793   -0.2601   17.5210 Cl     27  UNL27      -0.0870
    134 C           7.4916    1.3959   17.3732 C.3    27  UNL27       0.1805
    135 H           8.3124    1.3960   16.6515 H      27  UNL27       0.0806
    136 CL          5.7171    1.4777   21.0417 Cl     28  UNL28      -0.0870
    137 CL          8.5852    0.9699   21.0417 Cl     28  UNL28      -0.0870
    138 CL          6.7113   -1.2601   21.0416 Cl     28  UNL28      -0.0870
    139 C           7.0046    0.3959   20.4842 C.3    28  UNL28       0.1805
    140 H           7.0045    0.3960   19.3912 H      28  UNL28       0.0806
    141 CL          7.0206    3.1355   22.4713 Cl     28  UNL28      -0.0870
    142 CL          5.7168    0.7601   23.5399 Cl     28  UNL28      -0.0870
    143 CL          8.5592    1.1951   24.0049 Cl     28  UNL28      -0.0870
    144 C           6.9797    1.9733   23.8079 C.3    28  UNL28       0.1805
    145 H           6.7463    2.5154   24.7279 H      28  UNL28       0.0806
    146 CL          5.1971    1.4613   25.7814 Cl     28  UNL28      -0.0870
    147 CL          8.0652    1.5932   26.2717 Cl     28  UNL28      -0.0870
    148 CL          6.1913    2.1725   28.4252 Cl     28  UNL28      -0.0870
    149 C           6.4846    1.2040   26.9708 C.3    28  UNL28       0.1805
    150 H           6.4845    0.1485   27.2547 H      28  UNL28       0.0806
    151 CL         11.2842   -3.2742   -1.0624 Cl     28  UNL28      -0.0870
    152 CL         10.1170   -0.6725   -1.6565 Cl     28  UNL28      -0.0870
    153 CL         12.7087   -0.8392   -0.3375 Cl     28  UNL28      -0.0870
    154 C          11.6227   -1.5953   -1.5157 C.3    28  UNL28       0.1805
    155 H          12.1185   -1.5954   -2.4898 H      28  UNL28       0.0806
    156 CL         13.1235   -2.3957    2.1396 Cl     28  UNL28      -0.0870
    157 CL         10.3267   -3.2096    2.1396 Cl     28  UNL28      -0.0870
    158 CL         11.0204   -0.3805    2.1395 Cl     28  UNL28      -0.0870
    159 C          11.4902   -1.9954    1.5821 C.3    28  UNL28       0.1805
    160 H          11.4903   -1.9954    0.4891 H      28  UNL28       0.0806
    161 CL         12.5227    3.5577    2.1396 Cl     28  UNL28      -0.0870
    162 CL         15.3909    3.0499    2.1396 Cl     28  UNL28      -0.0870
    163 CL         13.5170    0.8199    2.1395 Cl     28  UNL28      -0.0870
    164 C          13.8103    2.4759    1.5821 C.3    28  UNL28       0.1805
    165 H          13.8102    2.4760    0.4891 H      28  UNL28       0.0806
    166 CL         10.4427    3.5577    5.2899 Cl     28  UNL28      -0.0870
    167 CL         13.3109    3.0499    5.2899 Cl     28  UNL28      -0.0870
    168 CL         11.4370    0.8199    5.2898 Cl     28  UNL28      -0.0870
    169 C          11.7303    2.4759    4.7324 C.3    28  UNL28       0.1805
    170 H          11.7302    2.4760    3.6394 H      28  UNL28       0.0806
    171 CL         10.7627    3.5577    8.4403 Cl     28  UNL28      -0.0870
    172 CL         13.6309    3.0499    8.4403 Cl     28  UNL28      -0.0870
    173 CL         11.7570    0.8199    8.4402 Cl     28  UNL28      -0.0870
    174 C          12.0503    2.4759    7.8828 C.3    28  UNL28       0.1805
    175 H          12.0502    2.4760    6.7898 H      28  UNL28       0.0806
    176 CL         11.2427    3.5577   11.5906 Cl     28  UNL28      -0.0870
    177 CL         14.1109    3.0499   11.5906 Cl     28  UNL28      -0.0870
    178 CL         12.2370    0.8199   11.5905 Cl     28  UNL28      -0.0870
    179 C          12.5303    2.4759   11.0331 C.3    28  UNL28       0.1805
    180 H          12.5302    2.4760    9.9401 H      28  UNL28       0.0806
    181 CL         10.6427    3.5577   14.7410 Cl     28  UNL28      -0.0870
    182 CL         13.5109    3.0499   14.7410 Cl     28  UNL28      -0.0870
    183 CL         11.6370    0.8199   14.7409 Cl     28  UNL28      -0.0870
    184 C          11.9303    2.4759   14.1835 C.3    28  UNL28       0.1805
    185 H          11.9302    2.4760   13.0905 H      28  UNL28       0.0806
    186 CL         10.4084    2.1122   17.6113 Cl     28  UNL28      -0.0870
    187 CL         12.5562    4.0797   17.6113 Cl     28  UNL28      -0.0870
    188 CL         13.1861    1.2357   17.6112 Cl     28  UNL28      -0.0870
    189 C          12.0502    2.4760   17.0538 C.3    28  UNL28       0.1805
    190 H          12.0501    2.4759   15.9608 H      28  UNL28       0.0806
    191 CL         11.4678    3.7096   20.3526 Cl     28  UNL28      -0.0870
    192 CL         13.0968    1.9209   21.9745 Cl     28  UNL28      -0.0870
    193 CL         11.7271    0.9042   19.6134 Cl     28  UNL28      -0.0870
    194 C          12.5429    2.3015   20.3354 C.3    28  UNL28       0.1805
    195 H          13.4164    2.5433   19.7245 H      28  UNL28       0.0806
    196 CL         12.2216    0.7970   24.4832 Cl     28  UNL28      -0.0870
    197 CL         13.0054    3.3987   25.5325 Cl     28  UNL28      -0.0870
    198 CL         11.2649    3.2320   23.2027 Cl     28  UNL28      -0.0870
    199 C          11.7174    2.4759   24.7398 C.3    28  UNL28       0.1805
    200 H          10.8418    2.4758   25.3940 H      28  UNL28       0.0806
    201 CL         10.1227    3.5577   29.0624 Cl     28  UNL28      -0.0870
    202 CL         12.9909    3.0499   29.0624 Cl     28  UNL28      -0.0870
    203 CL         11.1170    0.8199   29.0623 Cl     28  UNL28      -0.0870
    204 C          11.4103    2.4759   28.5049 C.3    28  UNL28       0.1805
    205 H          11.4102    2.4760   27.4119 H      28  UNL28       0.0806
    206 CL         16.2396   -1.1848   -0.1939 Cl     28  UNL28      -0.0870
    207 CL         14.3165   -1.5675   -2.3479 Cl     28  UNL28      -0.0870
    208 CL         14.4394    0.9799   -0.9406 Cl     28  UNL28      -0.0870
    209 C          15.3739   -0.4057   -1.5290 C.3    28  UNL28       0.1805
    210 H          16.1101   -0.0425   -2.2506 H      28  UNL28       0.0806
    211 CL         19.6585    0.9568    2.4863 Cl     28  UNL28      -0.0870
    212 CL         18.3579   -0.7642    0.5290 Cl     28  UNL28      -0.0870
    213 CL         16.7511    0.8402    2.3535 Cl     28  UNL28      -0.0870
    214 C          18.2559    0.7629    1.4214 C.3    28  UNL28       0.1805
    215 H          18.2560    1.5837    0.6997 H      28  UNL28       0.0806
    216 CL         19.6985    0.5968    5.7566 Cl     28  UNL28      -0.0870
    217 CL         18.3979   -1.1242    3.7993 Cl     28  UNL28      -0.0870
    218 CL         16.7911    0.4802    5.6238 Cl     28  UNL28      -0.0870
    219 C          18.2959    0.4029    4.6917 C.3    28  UNL28       0.1805
    220 H          18.2960    1.2237    3.9701 H      28  UNL28       0.0806
    221 CL         18.4568   -0.7937    8.6403 Cl     28  UNL28      -0.0870
    222 CL         16.7095    1.5368    8.6403 Cl     28  UNL28      -0.0870
    223 CL         19.6015    1.8847    8.6402 Cl     28  UNL28      -0.0870
    224 C          18.2558    0.8759    8.0828 C.3    28  UNL28       0.1805
    225 H          18.2558    0.8758    6.9898 H      28  UNL28       0.0806
    226 CL         18.4568   -1.1137   11.7906 Cl     28  UNL28      -0.0870
    227 CL         16.7095    1.2168   11.7906 Cl     28  UNL28      -0.0870
    228 CL         19.6015    1.5647   11.7905 Cl     28  UNL28      -0.0870
    229 C          18.2558    0.5559   11.2331 C.3    28  UNL28       0.1805
    230 H          18.2558    0.5558   10.1401 H      28  UNL28       0.0806
    231 CL         18.6968   -1.1537   14.9410 Cl     28  UNL28      -0.0870
    232 CL         16.9495    1.1768   14.9410 Cl     28  UNL28      -0.0870
    233 CL         19.8415    1.5247   14.9409 Cl     28  UNL28      -0.0870
    234 C          18.4958    0.5159   14.3835 C.3    28  UNL28       0.1805
    235 H          18.4958    0.5158   13.2905 H      28  UNL28       0.0806
    236 CL         18.4568    0.7851   19.0352 Cl     28  UNL28      -0.0870
    237 CL         16.7095    2.3240   17.2850 Cl     28  UNL28      -0.0870
    238 CL         19.6015    2.5536   17.0237 Cl     28  UNL28      -0.0870
    239 C          18.2558    1.4689   17.4132 C.3    28  UNL28       0.1805
    240 H          18.2558    0.6480   16.6915 H      28  UNL28       0.0806
    241 CL         17.2751    3.4040   19.4267 Cl     28  UNL28      -0.0870
    242 CL         14.9291    3.7519   21.1177 Cl     28  UNL28      -0.0870
    243 CL         15.5864    1.1175   20.0627 Cl     28  UNL28      -0.0870
    244 C          16.2403    2.6545   20.6540 C.3    28  UNL28       0.1805
    245 H          16.8484    2.4516   21.5392 H      28  UNL28       0.0806
    246 CL         16.4741    3.5577   23.0751 Cl     28  UNL28      -0.0870
    247 CL         18.3680    3.0499   25.2291 Cl     28  UNL28      -0.0870
    248 CL         17.1307    0.8199   23.8217 Cl     28  UNL28      -0.0870
    249 C          17.7430    2.4759   23.6739 C.3    28  UNL28       0.1805
    250 H          18.5637    2.4760   22.9522 H      28  UNL28       0.0806
    251 CL         15.8470   -0.3569   26.2229 Cl     28  UNL28      -0.0870
    252 CL         13.6691    0.0504   28.1136 Cl     28  UNL28      -0.0870
    253 CL         15.3869    2.2815   27.3680 Cl     28  UNL28      -0.0870
    254 C          14.6245    0.7815   26.8131 C.3    28  UNL28       0.1805
    255 H          13.9519    1.0231   25.9862 H      28  UNL28       0.0806
    256 CL         17.6337    4.9948   -2.2141 Cl     28  UNL28      -0.0870
    257 CL         16.7749    2.3885   -1.2374 Cl     28  UNL28      -0.0870
    258 CL         15.7138    4.8181   -0.0308 Cl     28  UNL28      -0.0870
    259 C          16.2889    4.0670   -1.5289 C.3    28  UNL28       0.1805
    260 H          15.4681    4.0671   -2.2507 H      28  UNL28       0.0806
    261 CL         21.8854   -2.9542    8.9203 Cl     28  UNL28      -0.0870
    262 CL         20.5757   -0.3525    8.9203 Cl     28  UNL28      -0.0870
    263 CL         23.4838   -0.5192    8.9202 Cl     28  UNL28      -0.0870
    264 C          21.9815   -1.2753    8.3628 C.3    28  UNL28       0.1805
    265 H          21.9815   -1.2754    7.2698 H      28  UNL28       0.0806
    266 CL         22.7424   -3.4249   11.5906 Cl     28  UNL28      -0.0870
    267 CL         20.9952   -1.0944   11.5906 Cl     28  UNL28      -0.0870
    268 CL         23.8872   -0.7465   11.5905 Cl     28  UNL28      -0.0870
    269 C          22.5415   -1.7553   11.0331 C.3    28  UNL28       0.1805
    270 H          22.5415   -1.7554    9.9401 H      28  UNL28       0.0806
    271 CL         22.0729   -2.9142   20.6128 Cl     28  UNL28      -0.0870
    272 CL         22.8567   -0.3125   21.6621 Cl     28  UNL28      -0.0870
    273 CL         21.1162   -0.4792   19.3323 Cl     28  UNL28      -0.0870
    274 C          21.5687   -1.2353   20.8695 C.3    28  UNL28       0.1805
    275 H          20.6931   -1.2354   21.5236 H      28  UNL28       0.0806
    276 CL         20.9343   -3.2479   24.1920 Cl     28  UNL28      -0.0870
    277 CL         20.9472   -0.3352   24.1920 Cl     28  UNL28      -0.0870
    278 CL         23.4633   -1.8029   24.1919 Cl     28  UNL28      -0.0870
    279 C          21.7815   -1.7952   23.6345 C.3    28  UNL28       0.1805
    280 H          21.7814   -1.7953   22.5415 H      28  UNL28       0.0806
    281 CL         23.9441    2.7568    2.4863 Cl     28  UNL28      -0.0870
    282 CL         22.6436    1.0358    0.5290 Cl     28  UNL28      -0.0870
    283 CL         21.0368    2.6402    2.3535 Cl     28  UNL28      -0.0870
    284 C          22.5416    2.5629    1.4214 C.3    28  UNL28       0.1805
    285 H          22.5417    3.3837    0.6997 H      28  UNL28       0.0806
    286 CL         23.1118    1.0330    3.7346 Cl     28  UNL28      -0.0870
    287 CL         21.5457    1.6810    6.1035 Cl     28  UNL28      -0.0870
    288 CL         23.7826    3.3776    5.3273 Cl     28  UNL28      -0.0870
    289 C          22.4702    2.3403    4.7436 C.3    28  UNL28       0.1805
    290 H          21.7975    2.9477    4.1326 H      28  UNL28       0.0806
    291 CL         22.1192    4.4836    6.7820 Cl     28  UNL28      -0.0870
    292 CL         23.2855    1.8773    7.3575 Cl     28  UNL28      -0.0870
    293 CL         24.7264    4.3069    8.0686 Cl     28  UNL28      -0.0870
    294 C          23.1302    3.5558    7.9026 C.3    28  UNL28       0.1805
    295 H          22.6465    3.5559    8.8827 H      28  UNL28       0.0806
    296 CL         23.9129    3.3426   11.0826 Cl     28  UNL28      -0.0870
    297 CL         22.2147    1.6522   12.7388 Cl     28  UNL28      -0.0870
    298 CL         21.1343    2.8917   10.3344 Cl     28  UNL28      -0.0870
    299 C          22.5733    2.1832   11.0871 C.3    28  UNL28       0.1805
    300 H          22.8725    1.3097   10.5022 H      28  UNL28       0.0806
    301 CL         23.3593    4.0036   13.7376 Cl     28  UNL28      -0.0870
    302 CL         22.5006    1.3973   14.7143 Cl     28  UNL28      -0.0870
    303 CL         21.4395    3.8269   15.9210 Cl     28  UNL28      -0.0870
    304 C          22.0145    3.0758   14.4228 C.3    28  UNL28       0.1805
    305 H          21.1938    3.0759   13.7010 H      28  UNL28       0.0806
    306 CL         21.8953    1.3082   18.3800 Cl     28  UNL28      -0.0870
    307 CL         22.9538    3.9829   17.9220 Cl     28  UNL28      -0.0870
    308 CL         24.7508    1.6905   17.9512 Cl     28  UNL28      -0.0870
    309 C          23.1262    2.2625   17.5356 C.3    28  UNL28       0.1805
    310 H          22.9816    2.1354   16.4597 H      28  UNL28       0.0806
    311 CL         22.0987    2.8599   21.0417 Cl     28  UNL28      -0.0870
    312 CL         19.9755    0.8660   21.0417 Cl     28  UNL28      -0.0870
    313 CL         19.3103    3.7019   21.0416 Cl     28  UNL28      -0.0870
    314 C          20.4615    2.4758   20.4842 C.3    28  UNL28       0.1805
    315 H          20.4616    2.4758   19.3912 H      28  UNL28       0.0806
    316 CL         21.4081    2.1233   24.7387 Cl     28  UNL28      -0.0870
    317 CL         21.8128    4.2421   22.7814 Cl     28  UNL28      -0.0870
    318 CL         23.9637    3.5144   24.6059 Cl     28  UNL28      -0.0870
    319 C          22.5800    2.9179   23.6738 C.3    28  UNL28       0.1805
    320 H          22.9432    2.1817   22.9522 H      28  UNL28       0.0806
    321 CL         18.6934    1.7121   29.0166 Cl     28  UNL28      -0.0870
    322 CL         20.0543    4.2129   28.4015 Cl     28  UNL28      -0.0870
    323 CL         21.6025    1.7955   28.8954 Cl     28  UNL28      -0.0870
    324 C          20.0975    2.4503   28.2278 C.3    28  UNL28       0.1805
    325 H          20.0600    2.2086   27.1625 H      28  UNL28       0.0806
    326 CL         25.4510   -1.3444   12.8900 Cl     28  UNL28      -0.0870
    327 CL         24.1413   -2.9014   14.9744 Cl     28  UNL28      -0.0870
    328 CL         27.0494   -2.8015   14.8409 Cl     28  UNL28      -0.0870
    329 C          25.5471   -1.9025   14.5687 C.3    28  UNL28       0.1805
    330 H          25.5471   -1.0268   15.2228 H      28  UNL28       0.0806
    331 CL         28.2112   -0.9290   17.8913 Cl     28  UNL28      -0.0870
    332 CL         26.4722   -3.2656   17.8913 Cl     28  UNL28      -0.0870
    333 CL         25.3181   -0.5911   17.8912 Cl     28  UNL28      -0.0870
    334 C          26.6672   -1.5954   17.3338 C.3    28  UNL28       0.1805
    335 H          26.6673   -1.5953   16.2408 H      28  UNL28       0.0806
    336 CL         28.7312    3.1422    0.6996 Cl     28  UNL28      -0.0870
    337 CL         26.9921    0.8055    0.6996 Cl     28  UNL28      -0.0870
    338 CL         25.8381    3.4801    0.6995 Cl     28  UNL28      -0.0870
    339 C          27.1872    2.4758    0.1421 C.3    28  UNL28       0.1805
    340 H          27.1873    2.4759   -0.9509 H      28  UNL28       0.0806
    341 CL         25.5589    2.2647    3.9699 Cl     28  UNL28      -0.0870
    342 CL         27.8785    4.0263    3.9699 Cl     28  UNL28      -0.0870
    343 CL         28.2443    1.1365    3.9698 Cl     28  UNL28      -0.0870
    344 C          27.2272    2.4760    3.4124 C.3    28  UNL28       0.1805
    345 H          27.2271    2.4760    2.3194 H      28  UNL28       0.0806
    346 CL         27.6321    0.8642    6.4999 Cl     28  UNL28      -0.0870
    347 CL         25.8919    1.0780    8.8258 Cl     28  UNL28      -0.0870
    348 CL         27.8683   -1.0566    8.6768 Cl     28  UNL28      -0.0870
    349 C          27.5050    0.6244    8.2506 C.3    28  UNL28       0.1805
    350 H          28.2388    1.2696    8.7403 H      28  UNL28       0.0806
    351 CL         25.6494    0.7941   11.5906 Cl     28  UNL28      -0.0870
    352 CL         28.5621    0.7993   11.5906 Cl     28  UNL28      -0.0870
    353 CL         27.1101   -1.7259   11.5905 Cl     28  UNL28      -0.0870
    354 C          27.1073   -0.0440   11.0331 C.3    28  UNL28       0.1805
    355 H          27.1072   -0.0440    9.9401 H      28  UNL28       0.0806
    356 CL         25.7397    3.3219   12.7386 Cl     28  UNL28      -0.0870
    357 CL         28.6079    2.9866   13.1199 Cl     28  UNL28      -0.0870
    358 CL         26.7340    1.5140   14.7946 Cl     28  UNL28      -0.0870
    359 C          27.0273    2.1889   13.1828 C.3    28  UNL28       0.1805
    360 H          27.0272    1.3681   12.4610 H      28  UNL28       0.0806
    361 CL         24.8370    1.0402   16.0113 Cl     28  UNL28      -0.0870
    362 CL         24.0057    3.8318   16.0113 Cl     28  UNL28      -0.0870
    363 CL         26.8391    3.1557   16.0112 Cl     28  UNL28      -0.0870
    364 C          25.2271    2.6759   15.4538 C.3    28  UNL28       0.1805
    365 H          25.2271    2.6758   14.3608 H      28  UNL28       0.0806
    366 CL         27.1310   -0.7407   20.2321 Cl     28  UNL28      -0.0870
    367 CL         25.8213    1.5780   21.4122 Cl     28  UNL28      -0.0870
    368 CL         28.7294    1.4295   21.3365 Cl     28  UNL28      -0.0870
    369 C          27.2271    1.0085   20.4968 C.3    28  UNL28       0.1805
    370 H          27.2271    1.5042   19.5227 H      28  UNL28       0.0806
    371 CL         25.7397    1.7577   24.3920 Cl     28  UNL28      -0.0870
    372 CL         28.6079    1.2499   24.3920 Cl     28  UNL28      -0.0870
    373 CL         26.7340   -0.9801   24.3919 Cl     28  UNL28      -0.0870
    374 C          27.0273    0.6759   23.8345 C.3    28  UNL28       0.1805
    375 H          27.0272    0.6760   22.7415 H      28  UNL28       0.0806
    376 CL         24.9286   -0.2032   26.1803 Cl     28  UNL28      -0.0870
    377 CL         25.6426    2.2976   27.4920 Cl     28  UNL28      -0.0870
    378 CL         27.1753   -0.1198   28.0323 Cl     28  UNL28      -0.0870
    379 C          26.2585    0.7816   26.8131 C.3    28  UNL28       0.1805
    380 H          26.9311    1.0232   25.9861 H      28  UNL28       0.0806
    381 CL         30.7311    3.5577   -2.1277 Cl     28  UNL28      -0.0870
    382 CL         32.6250    3.0499    0.0263 Cl     28  UNL28      -0.0870
    383 CL         31.3877    0.8199   -1.3811 Cl     28  UNL28      -0.0870
    384 C          32.0000    2.4759   -1.5289 C.3    28  UNL28       0.1805
    385 H          32.8207    2.4760   -2.2506 H      28  UNL28       0.0806
    386 CL         33.3462    0.8355    2.1396 Cl     28  UNL28      -0.0870
    387 CL         30.5494    0.0216    2.1396 Cl     28  UNL28      -0.0870
    388 CL         31.2430    2.8507    2.1395 Cl     28  UNL28      -0.0870
    389 C          31.7128    1.2358    1.5821 C.3    28  UNL28       0.1805
    390 H          31.7129    1.2358    0.4891 H      28  UNL28       0.0806
    391 CL         30.8656   -0.1367    5.2899 Cl     28  UNL28      -0.0870
    392 CL         30.8786    2.7760    5.2899 Cl     28  UNL28      -0.0870
    393 CL         33.3946    1.3083    5.2898 Cl     28  UNL28      -0.0870
    394 C          31.7128    1.3159    4.7324 C.3    28  UNL28       0.1805
    395 H          31.7128    1.3159    3.6394 H      28  UNL28       0.0806
    396 CL         30.4254    2.2777    8.4403 Cl     28  UNL28      -0.0870
    397 CL         33.2936    1.7699    8.4403 Cl     28  UNL28      -0.0870
    398 CL         31.4196   -0.4601    8.4402 Cl     28  UNL28      -0.0870
    399 C          31.7129    1.1959    7.8828 C.3    28  UNL28       0.1805
    400 H          31.7129    1.1960    6.7898 H      28  UNL28       0.0806
    401 CL         31.8167    0.7970   11.5906 Cl     28  UNL28      -0.0870
    402 CL         30.5070    3.3987   11.5906 Cl     28  UNL28      -0.0870
    403 CL         33.4151    3.2320   11.5905 Cl     28  UNL28      -0.0870
    404 C          31.9128    2.4759   11.0331 C.3    28  UNL28       0.1805
    405 H          31.9128    2.4758    9.9401 H      28  UNL28       0.0806
    406 CL         30.2254    3.5577   14.7410 Cl     28  UNL28      -0.0870
    407 CL         33.0936    3.0499   14.7410 Cl     28  UNL28      -0.0870
    408 CL         31.2196    0.8199   14.7409 Cl     28  UNL28      -0.0870
    409 C          31.5129    2.4759   14.1835 C.3    28  UNL28       0.1805
    410 H          31.5129    2.4760   13.0905 H      28  UNL28       0.0806
    411 CL         30.4526    3.7893   17.8913 Cl     28  UNL28      -0.0870
    412 CL         33.3073    3.2106   17.8913 Cl     28  UNL28      -0.0870
    413 CL         31.3786    1.0277   17.8912 Cl     28  UNL28      -0.0870
    414 C          31.7129    2.6759   17.3338 C.3    28  UNL28       0.1805
    415 H          31.7129    2.6760   16.2408 H      28  UNL28       0.0806
    416 CL         33.1155    3.4036   21.0417 Cl     28  UNL28      -0.0870
    417 CL         31.8149    0.7973   21.0417 Cl     28  UNL28      -0.0870
    418 CL         30.2081    3.2269   21.0416 Cl     28  UNL28      -0.0870
    419 C          31.7129    2.4758   20.4842 C.3    28  UNL28       0.1805
    420 H          31.7130    2.4759   19.3912 H      28  UNL28       0.0806
    421 CL         31.6167    0.7970   24.1920 Cl     28  UNL28      -0.0870
    422 CL         30.3070    3.3987   24.1920 Cl     28  UNL28      -0.0870
    423 CL         33.2151    3.2320   24.1919 Cl     28  UNL28      -0.0870
    424 C          31.7128    2.4759   23.6345 C.3    28  UNL28       0.1805
    425 H          31.7128    2.4758   22.5415 H      28  UNL28       0.0806
    426 CL         30.8656    1.0233   28.6624 Cl     28  UNL28      -0.0870
    427 CL         30.8786    3.9360   28.6624 Cl     28  UNL28      -0.0870
    428 CL         33.3946    2.4683   28.6623 Cl     28  UNL28      -0.0870
    429 C          31.7128    2.4759   28.1049 C.3    28  UNL28       0.1805
    430 H          31.7128    2.4759   27.0119 H      28  UNL28       0.0806
@<TRIPOS>BOND
     1     1     4    1
     2     2     4    1
     3     3     4    1
     4     4     5    1
     5     6     9    1
     6     7     9    1
     7     8     9    1
     8     9    10    1
     9    11    14    1
    10    12    14    1
    11    13    14    1
    12    14    15    1
    13    16    19    1
    14    17    19    1
    15    18    19    1
    16    19    20    1
    17    21    24    1
    18    22    24    1
    19    23    24    1
    20    24    25    1
    21    26    29    1
    22    27    29    1
    23    28    29    1
    24    29    30    1
    25    31    34    1
    26    32    34    1
    27    33    34    1
    28    34    35    1
    29    36    39    1
    30    37    39    1
    31    38    39    1
    32    39    40    1
    33    41    44    1
    34    42    44    1
    35    43    44    1
    36    44    45    1
    37    46    49    1
    38    47    49    1
    39    48    49    1
    40    49    50    1
    41    51    54    1
    42    52    54    1
    43    53    54    1
    44    54    55    1
    45    56    59    1
    46    57    59    1
    47    58    59    1
    48    59    60    1
    49    61    64    1
    50    62    64    1
    51    63    64    1
    52    64    65    1
    53    66    69    1
    54    67    69    1
    55    68    69    1
    56    69    70    1
    57    71    74    1
    58    72    74    1
    59    73    74    1
    60    74    75    1
    61    76    79    1
    62    77    79    1
    63    78    79    1
    64    79    80    1
    65    81    84    1
    66    82    84    1
    67    83    84    1
    68    84    85    1
    69    86    89    1
    70    87    89    1
    71    88    89    1
    72    89    90    1
    73    91    94    1
    74    92    94    1
    75    93    94    1
    76    94    95    1
    77    96    99    1
    78    97    99    1
    79    98    99    1
    80    99   100    1
    81   101   104    1
    82   102   104    1
    83   103   104    1
    84   104   105    1
    85   106   109    1
    86   107   109    1
    87   108   109    1
    88   109   110    1
    89   111   114    1
    90   112   114    1
    91   113   114    1
    92   114   115    1
    93   116   119    1
    94   117   119    1
    95   118   119    1
    96   119   120    1
    97   121   124    1
    98   122   124    1
    99   123   124    1
   100   124   125    1
   101   126   129    1
   102   127   129    1
   103   128   129    1
   104   129   130    1
   105   131   134    1
   106   132   134    1
   107   133   134    1
   108   134   135    1
   109   136   139    1
   110   137   139    1
   111   138   139    1
   112   139   140    1
   113   141   144    1
   114   142   144    1
   115   143   144    1
   116   144   145    1
   117   146   149    1
   118   147   149    1
   119   148   149    1
   120   149   150    1
   121   151   154    1
   122   152   154    1
   123   153   154    1
   124   154   155    1
   125   156   159    1
   126   157   159    1
   127   158   159    1
   128   159   160    1
   129   161   164    1
   130   162   164    1
   131   163   164    1
   132   164   165    1
   133   166   169    1
   134   167   169    1
   135   168   169    1
   136   169   170    1
   137   171   174    1
   138   172   174    1
   139   173   174    1
   140   174   175    1
   141   176   179    1
   142   177   179    1
   143   178   179    1
   144   179   180    1
   145   181   184    1
   146   182   184    1
   147   183   184    1
   148   184   185    1
   149   186   189    1
   150   187   189    1
   151   188   189    1
   152   189   190    1
   153   191   194    1
   154   192   194    1
   155   193   194    1
   156   194   195    1
   157   196   199    1
   158   197   199    1
   159   198   199    1
   160   199   200    1
   161   201   204    1
   162   202   204    1
   163   203   204    1
   164   204   205    1
   165   206   209    1
   166   207   209    1
   167   208   209    1
   168   209   210    1
   169   211   214    1
   170   212   214    1
   171   213   214    1
   172   214   215    1
   173   216   219    1
   174   217   219    1
   175   218   219    1
   176   219   220    1
   177   221   224    1
   178   222   224    1
   179   223   224    1
   180   224   225    1
   181   226   229    1
   182   227   229    1
   183   228   229    1
   184   229   230    1
   185   231   234    1
   186   232   234    1
   187   233   234    1
   188   234   235    1
   189   236   239    1
   190   237   239    1
   191   238   239    1
   192   239   240    1
   193   241   244    1
   194   242   244    1
   195   243   244    1
   196   244   245    1
   197   246   249    1
   198   247   249    1
   199   248   249    1
   200   249   250    1
   201   251   254    1
   202   252   254    1
   203   253   254    1
   204   254   255    1
   205   256   259    1
   206   257   259    1
   207   258   259    1
   208   259   260    1
   209   261   264    1
   210   262   264    1
   211   263   264    1
   212   264   265    1
   213   266   269    1
   214   267   269    1
   215   268   269    1
   216   269   270    1
   217   271   274    1
   218   272   274    1
   219   273   274    1
   220   274   275    1
   221   276   279    1
   222   277   279    1
   223   278   279    1
   224   279   280    1
   225   281   284    1
   226   282   284    1
   227   283   284    1
   228   284   285    1
   229   286   289    1
   230   287   289    1
   231   288   289    1
   232   289   290    1
   233   291   294    1
   234   292   294    1
   235   293   294    1
   236   294   295    1
   237   296   299    1
   238   297   299    1
   239   298   299    1
   240   299   300    1
   241   301   304    1
   242   302   304    1
   243   303   304    1
   244   304   305    1
   245   306   309    1
   246   307   309    1
   247   308   309    1
   248   309   310    1
   249   311   314    1
   250   312   314    1
   251   313   314    1
   252   314   315    1
   253   316   319    1
   254   317   319    1
   255   318   319    1
   256   319   320    1
   257   321   324    1
   258   322   324    1
   259   323   324    1
   260   324   325    1
   261   326   329    1
   262   327   329    1
   263   328   329    1
   264   329   330    1
   265   331   334    1
   266   332   334    1
   267   333   334    1
   268   334   335    1
   269   336   339    1
   270   337   339    1
   271   338   339    1
   272   339   340    1
   273   341   344    1
   274   342   344    1
   275   343   344    1
   276   344   345    1
   277   346   349    1
   278   347   349    1
   279   348   349    1
   280   349   350    1
   281   351   354    1
   282   352   354    1
   283   353   354    1
   284   354   355    1
   285   356   359    1
   286   357   359    1
   287   358   359    1
   288   359   360    1
   289   361   364    1
   290   362   364    1
   291   363   364    1
   292   364   365    1
   293   366   369    1
   294   367   369    1
   295   368   369    1
   296   369   370    1
   297   371   374    1
   298   372   374    1
   299   373   374    1
   300   374   375    1
   301   376   379    1
   302   377   379    1
   303   378   379    1
   304   379   380    1
   305   381   384    1
   306   382   384    1
   307   383   384    1
   308   384   385    1
   309   386   389    1
   310   387   389    1
   311   388   389    1
   312   389   390    1
   313   391   394    1
   314   392   394    1
   315   393   394    1
   316   394   395    1
   317   396   399    1
   318   397   399    1
   319   398   399    1
   320   399   400    1
   321   401   404    1
   322   402   404    1
   323   403   404    1
   324   404   405    1
   325   406   409    1
   326   407   409    1
   327   408   409    1
   328   409   410    1
   329   411   414    1
   330   412   414    1
   331   413   414    1
   332   414   415    1
   333   416   419    1
   334   417   419    1
   335   418   419    1
   336   419   420    1
   337   421   424    1
   338   422   424    1
   339   423   424    1
   340   424   425    1
   341   426   429    1
   342   427   429    1
   343   428   429    1
   344   429   430    1
