@<TRIPOS>MOLECULE
*****
 20 16 0 0 0
SMALL
GASTEIGER

@<TRIPOS>ATOM
      1 CL          0.2162    7.7861   -0.4751 Cl      1  UNL1       -0.0870
      2 CL         -2.5580    7.3445    0.2951 Cl      1  UNL1       -0.0870
      3 CL         -0.5918    5.2256    0.6542 Cl      1  UNL1       -0.0870
      4 C          -0.8662    6.9760    0.6699 C.3     1  UNL1        0.1805
      5 H          -0.6469    7.3495    1.6735 H       1  UNL1        0.0806
      6 CL          2.5677    3.7958    1.2850 Cl      2  UNL2       -0.0870
      7 CL          0.7373    1.5894    0.7698 Cl      2  UNL2       -0.0870
      8 CL          2.9075    1.2644    2.6853 Cl      2  UNL2       -0.0870
      9 C           1.7374    2.3977    1.9884 C.3     2  UNL2        0.1805
     10 H           1.0838    2.7530    2.7892 H       2  UNL2        0.0806
     11 CL          0.6009    8.5213    3.9384 Cl      3  UNL3       -0.0870
     12 CL          3.3739    7.7709    3.4573 Cl      3  UNL3       -0.0870
     13 CL          1.3100    5.7190    3.5801 Cl      3  UNL3       -0.0870
     14 C           1.6798    7.3867    3.1094 C.3     3  UNL3        0.1805
     15 H           1.5192    7.4837    2.0326 H       3  UNL3        0.0806
     16 CL          1.9565   13.7636    2.5433 Cl      4  UNL4       -0.0870
     17 CL          4.4681   12.6056    3.4570 Cl      4  UNL4       -0.0870
     18 CL          2.4479   10.9109    2.2194 Cl      4  UNL4       -0.0870
     19 C           3.1838   12.5225    2.2395 C.3     4  UNL4        0.1805
     20 H           3.6273   12.7104    1.2584 H       4  UNL4        0.0806
@<TRIPOS>BOND
     1     1     4    1
     2     2     4    1
     3     3     4    1
     4     4     5    1
     5     6     9    1
     6     7     9    1
     7     8     9    1
     8     9    10    1
     9    11    14    1
    10    12    14    1
    11    13    14    1
    12    14    15    1
    13    16    19    1
    14    17    19    1
    15    18    19    1
    16    19    20    1
