@<TRIPOS>MOLECULE
*****
 675 540 0 0 0
SMALL
GASTEIGER

@<TRIPOS>ATOM
      1 CL         -3.1549   -1.2049   -0.9602 Cl      1  UNL1       -0.0870
      2 CL         -0.2885   -0.6871   -0.9602 Cl      1  UNL1       -0.0870
      3 CL         -1.2734   -3.4285   -0.9603 Cl      1  UNL1       -0.0870
      4 C          -1.5722   -1.7734   -1.5177 C.3     1  UNL1        0.1805
      5 H          -1.5723   -1.7734   -2.6107 H       1  UNL1        0.0806
      6 CL         -3.1558   -3.3357    4.0195 Cl      2  UNL2       -0.0870
      7 CL         -2.4052   -1.1342    2.2662 Cl      2  UNL2       -0.0870
      8 CL         -0.4819   -3.2373    2.8685 Cl      2  UNL2       -0.0870
      9 C          -2.1935   -2.8591    2.6104 C.3     2  UNL2        0.1805
     10 H          -2.5448   -3.4280    1.7457 H       2  UNL2        0.0806
     11 CL          0.8115   -1.0898    5.0674 Cl      3  UNL3       -0.0870
     12 CL          3.1795   -2.7561    4.7511 Cl      3  UNL3       -0.0870
     13 CL          1.8445   -2.5978    7.3352 Cl      3  UNL3       -0.0870
     14 C           1.6224   -2.5801    5.5775 C.3     3  UNL3        0.1805
     15 H           0.9892   -3.4275    5.3024 H       3  UNL3        0.0806
     16 CL         -3.1551   -0.1969    8.0058 Cl      4  UNL4       -0.0870
     17 CL         -0.2423   -0.1918    8.0058 Cl      4  UNL4       -0.0870
     18 CL         -1.6944   -2.7170    8.0057 Cl      4  UNL4       -0.0870
     19 C          -1.6972   -1.0351    7.4483 C.3     4  UNL4        0.1805
     20 H          -1.6973   -1.0351    6.3553 H       4  UNL4        0.0806
     21 CL         -3.0210   -2.9486   12.0472 Cl      5  UNL5       -0.0870
     22 CL         -3.1550   -0.0389   12.0472 Cl      5  UNL5       -0.0870
     23 CL         -0.5681   -1.3779   12.0471 Cl      5  UNL5       -0.0870
     24 C          -2.2481   -1.4550   11.4897 C.3     5  UNL5        0.1805
     25 H          -2.2482   -1.4551   10.3967 H       5  UNL5        0.0806
     26 CL         -0.2478   -0.8223   16.1022 Cl      6  UNL6       -0.0870
     27 CL         -1.5484   -3.4286   16.1022 Cl      6  UNL6       -0.0870
     28 CL         -3.1552   -0.9990   16.1021 Cl      6  UNL6       -0.0870
     29 C          -1.6504   -1.7501   15.5447 C.3     6  UNL6        0.1805
     30 H          -1.6503   -1.7500   14.4517 H       6  UNL6        0.0806
     31 CL         -0.3137   -2.6657   20.0401 Cl      7  UNL7       -0.0870
     32 CL         -3.1542   -3.3102   20.0401 Cl      7  UNL7       -0.0870
     33 CL         -2.2920   -0.5279   20.0400 Cl      7  UNL7       -0.0870
     34 C          -1.9200   -2.1681   19.4826 C.3     7  UNL7        0.1805
     35 H          -1.9199   -2.1681   18.3896 H       7  UNL7        0.0806
     36 CL          1.5551   -2.6931   23.8886 Cl      8  UNL8       -0.0870
     37 CL         -0.5681   -0.9518   22.9171 Cl      8  UNL8       -0.0870
     38 CL         -1.2333   -3.4284   24.2988 Cl      8  UNL8       -0.0870
     39 C          -0.0820   -2.0861   24.1883 C.3     8  UNL8        0.1805
     40 H          -0.0820   -1.5536   25.1428 H       8  UNL8        0.0806
     41 CL         -1.6363   -2.8566   27.7197 Cl      9  UNL9       -0.0870
     42 CL         -1.0495   -0.2549   28.8906 Cl      9  UNL9       -0.0870
     43 CL         -2.3526   -0.4216   26.2908 Cl      9  UNL9       -0.0870
     44 C          -2.1778   -1.1777   27.8836 C.3     9  UNL9        0.1805
     45 H          -3.1549   -1.1778   28.3734 H       9  UNL9        0.0806
     46 CL          1.8095    2.1250   -2.6105 Cl     10  UNL10      -0.0870
     47 CL          0.3170    4.6258   -2.5599 Cl     10  UNL10      -0.0870
     48 CL         -0.8527    2.2084   -1.4318 Cl     10  UNL10      -0.0870
     49 C           0.6480    3.1098   -1.7051 C.3    10  UNL10       0.1805
     50 H           1.0859    3.3514   -0.7332 H      10  UNL10       0.0806
     51 CL         -3.1541    4.5342   -1.4354 Cl     11  UNL11      -0.0870
     52 CL         -2.2312    7.2959   -1.5096 Cl     11  UNL11      -0.0870
     53 CL         -2.8187    6.0247    1.0445 Cl     11  UNL11      -0.0870
     54 C          -2.2066    5.7761   -0.5995 C.3    11  UNL11       0.1805
     55 H          -1.1714    5.4319   -0.5327 H      11  UNL11       0.0806
     56 CL         -2.9392    1.7072    5.0822 Cl     12  UNL12      -0.0870
     57 CL         -2.5233    2.1581    2.2347 Cl     12  UNL12      -0.0870
     58 CL         -3.1541    4.3977    3.9872 Cl     12  UNL12      -0.0870
     59 C          -2.3284    2.8352    3.8602 C.3    12  UNL12       0.1805
     60 H          -1.2622    2.9940    4.0412 H      12  UNL12       0.0806
     61 CL         -3.1550    2.8454    9.3924 Cl     13  UNL13      -0.0870
     62 CL         -2.0898    4.9901    7.7342 Cl     13  UNL13      -0.0870
     63 CL         -0.2746    3.1879    9.1276 Cl     13  UNL13      -0.0870
     64 C          -1.8399    3.3336    8.3103 C.3    13  UNL13       0.1805
     65 H          -1.8400    2.6649    7.4457 H      13  UNL13       0.0806
     66 CL         -0.1906    5.4784   12.4319 Cl     14  UNL14      -0.0870
     67 CL         -2.0809    3.2624   12.4319 Cl     14  UNL14      -0.0870
     68 CL         -3.0548    6.0076   12.4318 Cl     14  UNL14      -0.0870
     69 C          -1.7754    4.9160   11.8744 C.3    14  UNL14       0.1805
     70 H          -1.7753    4.9161   10.7814 H      14  UNL14       0.0806
     71 CL         -0.4288    4.0109   16.8464 Cl     15  UNL15      -0.0870
     72 CL         -2.6798    2.1623   16.8464 Cl     15  UNL15      -0.0870
     73 CL         -3.1552    5.0361   16.8463 Cl     15  UNL15      -0.0870
     74 C          -2.0879    3.7363   16.2889 C.3    15  UNL15       0.1805
     75 H          -2.0878    3.7364   15.1959 H      15  UNL15       0.0806
     76 CL         -3.1549    6.3282   20.5426 Cl     16  UNL16      -0.0870
     77 CL         -2.0191    3.7219   19.9090 Cl     16  UNL16      -0.0870
     78 CL         -0.6158    6.1515   19.1263 Cl     16  UNL16      -0.0870
     79 C          -1.6584    5.4004   20.3462 C.3    16  UNL16       0.1805
     80 H          -1.1260    5.4005   21.3007 H      16  UNL16       0.0806
     81 CL         -2.1798    3.0017   25.5825 Cl     17  UNL17      -0.0870
     82 CL         -3.1558    2.9356   22.8389 Cl     17  UNL17      -0.0870
     83 CL         -0.3718    3.6009   23.3789 Cl     17  UNL17      -0.0870
     84 C          -1.7668    2.6399   23.8981 C.3    17  UNL17       0.1805
     85 H          -1.5006    1.5820   23.8290 H      17  UNL17       0.0806
     86 CL         -1.4085    3.7153   28.8904 Cl     18  UNL18      -0.0870
     87 CL         -3.1558    6.0458   28.8904 Cl     18  UNL18      -0.0870
     88 CL         -0.2637    6.3936   28.8904 Cl     18  UNL18      -0.0870
     89 C          -1.6095    5.3849   28.3329 C.3    18  UNL18       0.1805
     90 H          -1.6095    5.3848   27.2399 H      18  UNL18       0.0806
     91 CL          2.0998   10.0708   -0.2843 Cl     19  UNL19      -0.0870
     92 CL          2.0561   11.8236   -2.6103 Cl     19  UNL19      -0.0870
     93 CL          0.2342    9.5557   -2.4612 Cl     19  UNL19      -0.0870
     94 C           1.0831   10.8055   -1.5355 C.3    19  UNL19       0.1805
     95 H           0.3373   11.4367   -1.0456 H      19  UNL19       0.0806
     96 CL         -1.6322   11.7595    2.3008 Cl     20  UNL20      -0.0870
     97 CL         -2.5956    9.2779    1.1186 Cl     20  UNL20      -0.0870
     98 CL         -3.1545   11.8239   -0.1816 Cl     20  UNL20      -0.0870
     99 C          -1.9876   10.9087    0.7880 C.3    20  UNL20       0.1805
    100 H          -1.0599   10.8208    0.2168 H      20  UNL20       0.0806
    101 CL         -3.1551    9.5194    4.2070 Cl     21  UNL21      -0.0870
    102 CL         -0.2423    9.5234    4.2039 Cl     21  UNL21      -0.0870
    103 CL         -1.6944    7.5257    5.7484 Cl     21  UNL21      -0.0870
    104 C          -1.6972    8.5153    4.2787 C.3    21  UNL21       0.1805
    105 H          -1.6973    7.8468    3.4140 H      21  UNL21       0.0806
    106 CL         -3.1547   11.8234    7.0369 Cl     22  UNL22      -0.0870
    107 CL         -0.2865   11.4217    7.3475 Cl     22  UNL22      -0.0870
    108 CL         -2.1605    9.6574    8.7115 Cl     22  UNL22      -0.0870
    109 C          -1.8671   10.6266    7.2576 C.3    22  UNL22       0.1805
    110 H          -1.8672    9.9581    6.3929 H      22  UNL22       0.0806
    111 CL         -3.0660   11.8189   11.0593 Cl     23  UNL23      -0.0870
    112 CL         -0.7617   11.8240   12.8410 Cl     23  UNL23      -0.0870
    113 CL         -1.9104    9.2989   11.9527 Cl     23  UNL23      -0.0870
    114 C          -1.5717   10.9807   11.5100 C.3    23  UNL23       0.1805
    115 H          -0.9032   10.9808   10.6453 H      23  UNL23       0.0806
    116 CL         -2.3239    8.9348   16.2272 Cl     24  UNL24      -0.0870
    117 CL         -3.1551   11.7264   16.2272 Cl     24  UNL24      -0.0870
    118 CL         -0.3217   11.0503   16.2271 Cl     24  UNL24      -0.0870
    119 C          -1.9337   10.5705   15.6697 C.3    24  UNL24       0.1805
    120 H          -1.9337   10.5704   14.5767 H      24  UNL24       0.0806
    121 CL         -1.8462    9.2217   20.0401 Cl     25  UNL25      -0.0870
    122 CL         -3.1559   11.8234   20.0401 Cl     25  UNL25      -0.0870
    123 CL         -0.2478   11.6567   20.0400 Cl     25  UNL25      -0.0870
    124 C          -1.7501   10.9006   19.4826 C.3    25  UNL25       0.1805
    125 H          -1.7501   10.9005   18.3896 H      25  UNL25       0.0806
    126 CL         -3.1547   11.8242   23.8510 Cl     26  UNL26      -0.0870
    127 CL         -0.2865   11.3164   23.8510 Cl     26  UNL26      -0.0870
    128 CL         -2.1605    9.0864   23.8509 Cl     26  UNL26      -0.0870
    129 C          -1.8671   10.7424   23.2935 C.3    26  UNL26       0.1805
    130 H          -1.8672   10.7425   22.2005 H      26  UNL26       0.0806
    131 CL         -3.1559   11.8189   27.1096 Cl     27  UNL27      -0.0870
    132 CL         -0.8516   11.8240   28.8913 Cl     27  UNL27      -0.0870
    133 CL         -2.0002    9.2989   28.0030 Cl     27  UNL27      -0.0870
    134 C          -1.6615   10.9807   27.5603 C.3    27  UNL27       0.1805
    135 H          -0.9930   10.9808   26.6956 H      27  UNL27       0.0806
    136 CL          8.2133    2.5271   -2.6100 Cl     28  UNL28      -0.0870
    137 CL          5.7085    2.0193   -1.2127 Cl     28  UNL28      -0.0870
    138 CL          7.3451   -0.2107   -2.1256 Cl     28  UNL28      -0.0870
    139 C           7.3605    1.4453   -1.4959 C.3    28  UNL28       0.1805
    140 H           7.8931    1.4454   -0.5414 H      28  UNL28       0.0806
    141 CL          2.4455   -2.4909   -2.6095 Cl     28  UNL28      -0.0870
    142 CL          2.8886   -0.6545   -0.3924 Cl     28  UNL28      -0.0870
    143 CL          2.1701   -3.4277    0.1347 Cl     28  UNL28      -0.0870
    144 C           3.0414   -2.3295   -0.9488 C.3    28  UNL28       0.1805
    145 H           4.0999   -2.6013   -0.9354 H      28  UNL28       0.0806
    146 CL          4.6058   -2.6993    1.8708 Cl     28  UNL28      -0.0870
    147 CL          6.1270   -1.1291    3.7955 Cl     28  UNL28      -0.0870
    148 CL          6.2315   -0.4595    0.9626 Cl     28  UNL28      -0.0870
    149 C           5.2195   -1.0871    2.2746 C.3    28  UNL28       0.1805
    150 H           4.3660   -0.4162    2.4016 H      28  UNL28       0.0806
    151 CL          2.7599    3.3501    5.1909 Cl     28  UNL28      -0.0870
    152 CL          3.4869    1.6866    7.4687 Cl     28  UNL28      -0.0870
    153 CL          3.5187    0.5682    4.7792 Cl     28  UNL28      -0.0870
    154 C           3.7879    2.0222    5.7554 C.3    28  UNL28       0.1805
    155 H           4.8323    2.3239    5.6422 H      28  UNL28       0.0806
    156 CL          2.4139   -2.0440   10.6780 Cl     28  UNL28      -0.0870
    157 CL          1.5826    0.7477   10.6780 Cl     28  UNL28      -0.0870
    158 CL          4.4160    0.0716   10.6779 Cl     28  UNL28      -0.0870
    159 C           2.8040   -0.4082   10.1205 C.3    28  UNL28       0.1805
    160 H           2.8040   -0.4083    9.0275 H      28  UNL28       0.0806
    161 CL          3.5469    2.8671   14.7409 Cl     28  UNL28      -0.0870
    162 CL          2.7255    0.0726   14.7409 Cl     28  UNL28      -0.0870
    163 CL          0.7160    2.1814   14.7408 Cl     28  UNL28      -0.0870
    164 C           2.3295    1.7069   14.1834 C.3    28  UNL28       0.1805
    165 H           2.3296    1.7070   13.0904 H      28  UNL28       0.0806
    166 CL          2.4420   -0.5055   18.3995 Cl     28  UNL28      -0.0870
    167 CL          5.3547   -0.5004   18.3995 Cl     28  UNL28      -0.0870
    168 CL          3.9027   -3.0255   18.3994 Cl     28  UNL28      -0.0870
    169 C           3.8999   -1.3437   17.8420 C.3    28  UNL28       0.1805
    170 H           3.8998   -1.3437   16.7490 H      28  UNL28       0.0806
    171 CL          4.0460   -1.2668   21.4230 Cl     28  UNL28      -0.0870
    172 CL          2.2987    0.5769   22.8486 Cl     28  UNL28      -0.0870
    173 CL          5.1908    0.8522   23.0613 Cl     28  UNL28      -0.0870
    174 C           3.8450    0.3951   22.0033 C.3    28  UNL28       0.1805
    175 H           3.8451    1.0636   21.1385 H      28  UNL28       0.0806
    176 CL          5.5161   -3.4288   28.8721 Cl     28  UNL28      -0.0870
    177 CL          2.6518   -2.8995   28.8907 Cl     28  UNL28      -0.0870
    178 CL          4.4916   -0.9206   27.8026 Cl     28  UNL28      -0.0870
    179 C           4.1733   -2.6502   28.0179 C.3    28  UNL28       0.1805
    180 H           4.0822   -3.1088   27.0299 H      28  UNL28       0.0806
    181 CL          3.8441    4.6385   -2.6104 Cl     28  UNL28      -0.0870
    182 CL          4.5112    6.3730   -0.3675 Cl     28  UNL28      -0.0870
    183 CL          2.4251    7.1556   -2.2437 Cl     28  UNL28      -0.0870
    184 C           3.2134    5.7956   -1.4263 C.3    28  UNL28       0.1805
    185 H           2.4682    5.2857   -0.8105 H      28  UNL28       0.0806
    186 CL          0.3447    7.0702    2.5558 Cl     28  UNL28      -0.0870
    187 CL          3.2129    6.5624    2.5558 Cl     28  UNL28      -0.0870
    188 CL          1.3390    4.3323    2.5557 Cl     28  UNL28      -0.0870
    189 C           1.6323    5.9884    1.9983 C.3    28  UNL28       0.1805
    190 H           1.6322    5.9885    0.9053 H      28  UNL28       0.0806
    191 CL          0.9371    6.6159    7.4968 Cl     28  UNL28      -0.0870
    192 CL          1.8064    9.1821    6.4277 Cl     28  UNL28      -0.0870
    193 CL          3.3290    6.7690    5.8416 Cl     28  UNL28      -0.0870
    194 C           1.7143    7.4376    6.1331 C.3    28  UNL28       0.1805
    195 H           1.1068    7.2711    5.2399 H      28  UNL28       0.0806
    196 CL          5.3747    6.6370    8.9820 Cl     28  UNL28      -0.0870
    197 CL          5.4246    4.4553    7.0528 Cl     28  UNL28      -0.0870
    198 CL          4.7661    3.9207    9.8395 Cl     28  UNL28      -0.0870
    199 C           4.6490    5.0902    8.5136 C.3    28  UNL28       0.1805
    200 H           3.5912    5.2586    8.2960 H      28  UNL28       0.0806
    201 CL          6.6604    4.3599   12.7827 Cl     28  UNL28      -0.0870
    202 CL          5.7259    7.0705   13.2967 Cl     28  UNL28      -0.0870
    203 CL          3.8448    5.0201   12.4353 Cl     28  UNL28      -0.0870
    204 C           5.3132    5.3492   13.3705 C.3    28  UNL28       0.1805
    205 H           5.1227    5.0855   14.4140 H      28  UNL28       0.0806
    206 CL          5.9021    4.3727   16.8743 Cl     28  UNL28      -0.0870
    207 CL          8.3949    3.0056   16.2407 Cl     28  UNL28      -0.0870
    208 CL          8.0189    5.7860   15.4579 Cl     28  UNL28      -0.0870
    209 C           7.6535    4.5541   16.6778 C.3    28  UNL28       0.1805
    210 H           8.0746    4.8798   17.6324 H      28  UNL28       0.0806
    211 CL          2.7215    5.2173   19.1968 Cl     28  UNL28      -0.0870
    212 CL          3.9773    2.6258   18.7596 Cl     28  UNL28      -0.0870
    213 CL          1.4304    2.7918   20.1634 Cl     28  UNL28      -0.0870
    214 C           2.4393    3.4957   18.8883 C.3    28  UNL28       0.1805
    215 H           1.9089    3.3992   17.9375 H      28  UNL28       0.0806
    216 CL          3.5423    5.5837   26.9384 Cl     28  UNL28      -0.0870
    217 CL          5.4011    3.6332   25.8317 Cl     28  UNL28      -0.0870
    218 CL          2.8903    4.1913   24.4644 Cl     28  UNL28      -0.0870
    219 C           4.1939    4.8730   25.4521 C.3    28  UNL28       0.1805
    220 H           4.6824    5.6645   24.8780 H      28  UNL28       0.0806
    221 CL          3.1254    1.3522   26.0136 Cl     28  UNL28      -0.0870
    222 CL          2.6637    1.4042   28.8890 Cl     28  UNL28      -0.0870
    223 CL          0.9674    2.9704   27.1129 Cl     28  UNL28      -0.0870
    224 C           1.9035    1.4766   27.2904 C.3    28  UNL28       0.1805
    225 H           1.2199    0.6290   27.1959 H      28  UNL28       0.0806
    226 CL          4.6844    9.6685   -2.6101 Cl     28  UNL28      -0.0870
    227 CL          6.2371    9.4113   -0.1592 Cl     28  UNL28      -0.0870
    228 CL          6.4568   11.8242   -1.7761 Cl     28  UNL28      -0.0870
    229 C           5.3756   10.5326   -1.2266 C.3    28  UNL28       0.1805
    230 H           4.5577   10.9861   -0.6609 H      28  UNL28       0.0806
    231 CL          3.6032   11.5572    1.9490 Cl     28  UNL28      -0.0870
    232 CL          4.5488    9.7087    3.9918 Cl     28  UNL28      -0.0870
    233 CL          2.6749   11.8244    4.6969 Cl     28  UNL28      -0.0870
    234 C           3.1822   10.6890    3.4348 C.3    28  UNL28       0.1805
    235 H           2.3454   10.0205    3.2171 H      28  UNL28       0.0806
    236 CL          5.7970    9.0324    6.8608 Cl     28  UNL28      -0.0870
    237 CL          6.1695   11.8241    6.1177 Cl     28  UNL28      -0.0870
    238 CL          4.9000   11.1480    8.6507 Cl     28  UNL28      -0.0870
    239 C           6.1206   10.6682    7.4594 C.3    28  UNL28       0.1805
    240 H           7.0978   10.6681    7.9491 H      28  UNL28       0.0806
    241 CL          3.0909    8.5474    9.0544 Cl     28  UNL28      -0.0870
    242 CL          2.8713   10.5701   11.1388 Cl     28  UNL28      -0.0870
    243 CL          0.9331    8.3998   11.0053 Cl     28  UNL28      -0.0870
    244 C           2.6212    8.8638   10.7331 C.3    28  UNL28       0.1805
    245 H           3.2540    8.2584   11.3872 H      28  UNL28       0.0806
    246 CL          4.8587   11.7439   16.9509 Cl     28  UNL28      -0.0870
    247 CL          6.7175    9.7935   15.8443 Cl     28  UNL28      -0.0870
    248 CL          4.2067   10.3516   14.4770 Cl     28  UNL28      -0.0870
    249 C           5.5103   11.0333   15.4646 C.3    28  UNL28       0.1805
    250 H           5.9988   11.8247   14.8905 H      28  UNL28       0.0806
    251 CL          2.8410    7.1279   14.5014 Cl     28  UNL28      -0.0870
    252 CL          0.9263    9.2530   13.9521 Cl     28  UNL28      -0.0870
    253 CL          0.3684    7.2916   16.0321 Cl     28  UNL28      -0.0870
    254 C           1.6322    8.2163   15.2033 C.3    28  UNL28       0.1805
    255 H           2.1296    8.8543   15.9383 H      28  UNL28       0.0806
    256 CL          4.8206   11.8244   22.2210 Cl     28  UNL28      -0.0870
    257 CL          4.8934   11.2752   25.0806 Cl     28  UNL28      -0.0870
    258 CL          5.8250    9.2668   23.1876 Cl     28  UNL28      -0.0870
    259 C           5.6943   11.0014   23.5242 C.3    28  UNL28       0.1805
    260 H           6.7032   11.4182   23.5785 H      28  UNL28       0.0806
    261 CL          1.4950    8.6082   21.1340 Cl     28  UNL28      -0.0870
    262 CL          0.1853    7.0511   23.2184 Cl     28  UNL28      -0.0870
    263 CL          3.0934    7.1510   23.0849 Cl     28  UNL28      -0.0870
    264 C           1.5911    8.0500   22.8127 C.3    28  UNL28       0.1805
    265 H           1.5911    8.9258   23.4668 H      28  UNL28       0.0806
    266 CL          3.8425    8.7081   26.3344 Cl     28  UNL28      -0.0870
    267 CL          0.9389    8.7156   26.5649 Cl     28  UNL28      -0.0870
    268 CL          2.5831    8.1089   28.8916 Cl     28  UNL28      -0.0870
    269 C           2.4667    9.0522   27.3963 C.3    28  UNL28       0.1805
    270 H           2.4902   10.1135   27.6565 H      28  UNL28       0.0806
    271 CL         10.6665   -1.3540   -2.3940 Cl     28  UNL28      -0.0870
    272 CL          9.0458   -1.9859   -0.0578 Cl     28  UNL28      -0.0870
    273 CL          8.4849   -3.2718   -2.6105 Cl     28  UNL28      -0.0870
    274 C           9.7494   -2.6172   -1.5561 C.3    28  UNL28       0.1805
    275 H          10.4363   -3.4275   -1.2989 H      28  UNL28       0.0806
    276 CL         10.0981   -0.5444    2.6934 Cl     28  UNL28      -0.0870
    277 CL         10.2131   -3.4271    3.0948 Cl     28  UNL28      -0.0870
    278 CL         11.9237   -2.1643    1.1038 Cl     28  UNL28      -0.0870
    279 C          11.1419   -1.9759    2.6826 C.3    28  UNL28       0.1805
    280 H          11.9202   -1.8396    3.4377 H      28  UNL28       0.0806
    281 CL          7.6206   -3.4278    5.4128 Cl     28  UNL28      -0.0870
    282 CL          7.8084   -1.1283    7.1908 Cl     28  UNL28      -0.0870
    283 CL         10.2318   -2.4067    6.2021 Cl     28  UNL28      -0.0870
    284 C           8.5535   -1.9799    5.8276 C.3    28  UNL28       0.1805
    285 H           8.5534   -1.3114    4.9629 H      28  UNL28       0.0806
    286 CL          7.4510   -0.8627   10.8494 Cl     28  UNL28      -0.0870
    287 CL          9.6279   -2.7214   11.3881 Cl     28  UNL28      -0.0870
    288 CL          7.5493   -3.4283    9.4739 Cl     28  UNL28      -0.0870
    289 C           8.5083   -2.1063   10.1606 C.3    28  UNL28       0.1805
    290 H           9.0942   -1.6529    9.3570 H      28  UNL28       0.0806
    291 CL          3.6720   -3.4274   14.5742 Cl     28  UNL28      -0.0870
    292 CL          5.7468   -1.3830   14.5786 Cl     28  UNL28      -0.0870
    293 CL          5.6416   -3.3469   12.4299 Cl     28  UNL28      -0.0870
    294 C           4.6875   -2.3808   13.5681 C.3    28  UNL28       0.1805
    295 H           4.0353   -1.7178   12.9940 H      28  UNL28       0.0806
    296 CL          7.7131   -2.8254   17.2673 Cl     28  UNL28      -0.0870
    297 CL         10.5795   -2.6950   17.7684 Cl     28  UNL28      -0.0870
    298 CL          9.5946   -3.3849   15.1153 Cl     28  UNL28      -0.0870
    299 C           9.2958   -2.4289   16.5768 C.3    28  UNL28       0.1805
    300 H           9.2957   -1.3710   16.3017 H      28  UNL28       0.0806
    301 CL          8.0966   -1.3260   20.4064 Cl     28  UNL28      -0.0870
    302 CL          8.6865    1.1353   21.8480 Cl     28  UNL28      -0.0870
    303 CL         10.6064    0.0738   19.9316 Cl     28  UNL28      -0.0870
    304 C           8.8880    0.2568   20.3227 C.3    28  UNL28       0.1805
    305 H           8.4140    0.8366   19.5266 H      28  UNL28       0.0806
    306 CL          6.2080   -3.4285   25.3784 Cl     28  UNL28      -0.0870
    307 CL          7.7148   -1.1944   24.2727 Cl     28  UNL28      -0.0870
    308 CL          6.7303   -3.2988   22.5158 Cl     28  UNL28      -0.0870
    309 C           6.4100   -2.3571   23.9820 C.3    28  UNL28       0.1805
    310 H           5.4800   -1.8014   23.8376 H      28  UNL28       0.0806
    311 CL          9.0157   -3.4280   28.8923 Cl     28  UNL28      -0.0870
    312 CL         10.6196   -1.0353   28.4603 Cl     28  UNL28      -0.0870
    313 CL         10.7540   -3.2412   26.5627 Cl     28  UNL28      -0.0870
    314 C           9.7130   -2.3415   27.6790 C.3    28  UNL28       0.1805
    315 H           8.8958   -1.8975   27.1049 H      28  UNL28       0.0806
    316 CL          6.9836    7.4272   -2.6093 Cl     28  UNL28      -0.0870
    317 CL          7.3519    4.9431   -1.1336 Cl     28  UNL28      -0.0870
    318 CL          9.6622    6.3562   -2.2063 Cl     28  UNL28      -0.0870
    319 C           8.0431    6.5307   -1.5082 C.3    28  UNL28       0.1805
    320 H           8.1293    7.0967   -0.5771 H      28  UNL28       0.0806
    321 CL          9.3820    4.6529    3.6081 Cl     28  UNL28      -0.0870
    322 CL          8.7010    3.2826    1.1296 Cl     28  UNL28      -0.0870
    323 CL          6.7853    5.0961    2.3652 Cl     28  UNL28      -0.0870
    324 C           8.5021    4.7679    2.0747 C.3    28  UNL28       0.1805
    325 H           8.9188    5.5993    1.5006 H      28  UNL28       0.0806
    326 CL         10.0029    1.5365    5.2925 Cl     28  UNL28      -0.0870
    327 CL          8.2008    3.5702    6.3418 Cl     28  UNL28      -0.0870
    328 CL          7.4284    2.0017    4.0120 Cl     28  UNL28      -0.0870
    329 C           8.3095    1.9895    5.5492 C.3    28  UNL28       0.1805
    330 H           7.8495    1.2443    6.2033 H      28  UNL28       0.0806
    331 CL          9.8207    1.4209    8.5987 Cl     28  UNL28      -0.0870
    332 CL         12.6889    1.8643    8.8461 Cl     28  UNL28      -0.0870
    333 CL         10.8150    3.8118    9.9326 Cl     28  UNL28      -0.0870
    334 C          11.1083    2.0940    9.6126 C.3    28  UNL28       0.1805
    335 H          11.1082    1.5614   10.5671 H      28  UNL28       0.0806
    336 CL          8.7779    1.5219   12.5576 Cl     28  UNL28      -0.0870
    337 CL         11.2100    3.0653   12.9897 Cl     28  UNL28      -0.0870
    338 CL         10.4442    0.9922   14.8872 Cl     28  UNL28      -0.0870
    339 C          10.4342    1.4846   13.1852 C.3    28  UNL28       0.1805
    340 H          11.0030    0.7489   12.6110 H      28  UNL28       0.0806
    341 CL         10.8633    5.4049   17.8893 Cl     28  UNL28      -0.0870
    342 CL         13.5973    4.4002   17.8893 Cl     28  UNL28      -0.0870
    343 CL         11.3601    2.5348   17.8892 Cl     28  UNL28      -0.0870
    344 C          11.9403    4.1134   17.3318 C.3    28  UNL28       0.1805
    345 H          11.9403    4.1135   16.2388 H      28  UNL28       0.0806
    346 CL          6.9772    4.0449   22.7779 Cl     28  UNL28      -0.0870
    347 CL          6.4581    4.7587   20.0021 Cl     28  UNL28      -0.0870
    348 CL          7.6253    6.7166   21.8157 Cl     28  UNL28      -0.0870
    349 C           7.5307    4.9989   21.3915 C.3    28  UNL28       0.1805
    350 H           8.5318    4.6570   21.1165 H      28  UNL28       0.0806
    351 CL         12.8065    2.9125   24.3510 Cl     28  UNL28      -0.0870
    352 CL         11.0675    0.5758   24.3510 Cl     28  UNL28      -0.0870
    353 CL          9.9134    3.2504   24.3509 Cl     28  UNL28      -0.0870
    354 C          11.2625    2.2461   23.7935 C.3    28  UNL28       0.1805
    355 H          11.2626    2.2461   22.7005 H      28  UNL28       0.0806
    356 CL          7.8919    1.6763   26.6285 Cl     28  UNL28      -0.0870
    357 CL         10.2284    2.0836   28.3194 Cl     28  UNL28      -0.0870
    358 CL          8.4513    4.3147   27.7287 Cl     28  UNL28      -0.0870
    359 C           8.5528    2.5682   28.0093 C.3    28  UNL28       0.1805
    360 H           7.9558    2.3265   28.8923 H      28  UNL28       0.0806
    361 CL          9.5479    9.5596   -1.8712 Cl     28  UNL28      -0.0870
    362 CL         10.4171   11.8174   -0.2492 Cl     28  UNL28      -0.0870
    363 CL         11.9398   11.0484   -2.6104 Cl     28  UNL28      -0.0870
    364 C          10.3250   11.1516   -1.8884 C.3    28  UNL28       0.1805
    365 H           9.7175   11.8242   -2.4993 H      28  UNL28       0.0806
    366 CL          7.2374    7.8465    4.2269 Cl     28  UNL28      -0.0870
    367 CL          8.1066   10.4127    3.1578 Cl     28  UNL28      -0.0870
    368 CL          9.6292    7.9996    2.5717 Cl     28  UNL28      -0.0870
    369 C           8.0145    8.6682    2.8632 C.3    28  UNL28       0.1805
    370 H           7.4070    8.5017    1.9700 H      28  UNL28       0.0806
    371 CL         10.1692    9.2217    6.2940 Cl     28  UNL28      -0.0870
    372 CL          9.6881   11.8234    7.5121 Cl     28  UNL28      -0.0870
    373 CL         10.7562   11.6567    4.8073 Cl     28  UNL28      -0.0870
    374 C           9.6860   10.9006    5.9998 C.3    28  UNL28       0.1805
    375 H           8.6694   10.9005    5.5983 H      28  UNL28       0.0806
    376 CL          7.3459    9.1078   10.1015 Cl     28  UNL28      -0.0870
    377 CL         10.2123    9.6256   10.1015 Cl     28  UNL28      -0.0870
    378 CL          9.2274    6.8842   10.1014 Cl     28  UNL28      -0.0870
    379 C           8.9286    8.5393    9.5440 C.3    28  UNL28       0.1805
    380 H           8.9285    8.5393    8.4510 H      28  UNL28       0.0806
    381 CL          8.7928    9.2639   13.0773 Cl     28  UNL28      -0.0870
    382 CL          7.7151   11.8250   12.2034 Cl     28  UNL28      -0.0870
    383 CL          9.2678   11.6609   14.6625 Cl     28  UNL28      -0.0870
    384 C           9.0588   11.0147   13.0260 C.3    28  UNL28       0.1805
    385 H           9.9743   11.2071   12.4608 H      28  UNL28       0.0806
    386 CL          3.0512    9.1667   18.3435 Cl     28  UNL28      -0.0870
    387 CL          4.9196    8.4136   20.4473 Cl     28  UNL28      -0.0870
    388 CL          5.2162    7.3044   17.7703 Cl     28  UNL28      -0.0870
    389 C           4.7257    8.7217   18.7135 C.3    28  UNL28       0.1805
    390 H           5.3726    9.5586   18.4384 H      28  UNL28       0.0806
    391 CL          7.3051   11.4025   19.4334 Cl     28  UNL28      -0.0870
    392 CL          9.4739    9.4738   19.1880 Cl     28  UNL28      -0.0870
    393 CL          9.7422   11.7456   20.9912 Cl     28  UNL28      -0.0870
    394 C           8.6188   10.5722   20.2839 C.3    28  UNL28       0.1805
    395 H           8.1843    9.9807   21.0939 H      28  UNL28       0.0806
    396 CL          9.1422    6.4282   24.9907 Cl     28  UNL28      -0.0870
    397 CL          6.7580    6.8716   26.6041 Cl     28  UNL28      -0.0870
    398 CL          8.9237    8.8192   26.6398 Cl     28  UNL28      -0.0870
    399 C           8.0374    7.6445   25.6531 C.3    28  UNL28       0.1805
    400 H           7.5724    8.1769   24.8194 H      28  UNL28       0.0806
    401 CL          5.2641   11.8242   28.8904 Cl     28  UNL28      -0.0870
    402 CL          8.1323   11.3164   28.8904 Cl     28  UNL28      -0.0870
    403 CL          6.2583    9.0864   28.8904 Cl     28  UNL28      -0.0870
    404 C           6.5516   10.7424   28.3329 C.3    28  UNL28       0.1805
    405 H           6.5516   10.7425   27.2399 H      28  UNL28       0.0806
    406 CL         14.5282   -1.2627   -2.6103 Cl     28  UNL28      -0.0870
    407 CL         16.6073   -1.6644   -0.6102 Cl     28  UNL28      -0.0870
    408 CL         14.2905   -3.4287   -0.6774 Cl     28  UNL28      -0.0870
    409 C          15.4119   -2.4595   -1.6482 C.3    28  UNL28       0.1805
    410 H          15.9407   -3.1281   -2.3323 H      28  UNL28       0.0806
    411 CL         14.3481    3.2014    3.5740 Cl     28  UNL28      -0.0870
    412 CL         12.9723    0.8648    2.5102 Cl     28  UNL28      -0.0870
    413 CL         12.0594    3.5393    1.8043 Cl     28  UNL28      -0.0870
    414 C          13.4676    2.5351    2.1885 C.3    28  UNL28       0.1805
    415 H          14.1363    2.5351    1.3239 H      28  UNL28       0.0806
    416 CL         17.2052    1.3875    2.5409 Cl     28  UNL28      -0.0870
    417 CL         17.1255   -1.5080    2.8473 Cl     28  UNL28      -0.0870
    418 CL         16.5341    0.2141    5.1210 Cl     28  UNL28      -0.0870
    419 C          16.4154    0.0312    3.3627 C.3    28  UNL28       0.1805
    420 H          15.3576    0.0313    3.0875 H      28  UNL28       0.0806
    421 CL         13.4332   -3.4278    7.1796 Cl     28  UNL28      -0.0870
    422 CL         14.1298   -0.5996    7.1796 Cl     28  UNL28      -0.0870
    423 CL         16.2308   -2.6172    7.1795 Cl     28  UNL28      -0.0870
    424 C          14.5978   -2.2148    6.6221 C.3    28  UNL28       0.1805
    425 H          14.5978   -2.2149    5.5291 H      28  UNL28       0.0806
    426 CL         14.4555   -0.6395   11.0706 Cl     28  UNL28      -0.0870
    427 CL         15.9900   -3.1153   11.0706 Cl     28  UNL28      -0.0870
    428 CL         13.0785   -3.2062   11.0705 Cl     28  UNL28      -0.0870
    429 C          14.5081   -2.3203   10.5131 C.3    28  UNL28       0.1805
    430 H          14.5081   -2.3202    9.4201 H      28  UNL28       0.0806
    431 CL         13.0264   -0.7888   14.5703 Cl     28  UNL28      -0.0870
    432 CL         14.9652    0.9309   15.9000 Cl     28  UNL28      -0.0870
    433 CL         15.8783   -1.2573   14.2079 Cl     28  UNL28      -0.0870
    434 C          14.6233   -0.0306   14.4518 C.3    28  UNL28       0.1805
    435 H          14.6232    0.6379   13.5871 H      28  UNL28       0.0806
    436 CL         13.6667   -3.4287   19.9014 Cl     28  UNL28      -0.0870
    437 CL         13.4712   -0.8712   18.5211 Cl     28  UNL28      -0.0870
    438 CL         15.7005   -2.6610   17.9628 Cl     28  UNL28      -0.0870
    439 C          13.9836   -2.5619   18.3891 C.3    28  UNL28       0.1805
    440 H          13.4037   -3.0360   17.5931 H      28  UNL28       0.0806
    441 CL         15.0457    2.5399   21.8881 Cl     28  UNL28      -0.0870
    442 CL         16.4125   -0.0322   21.8881 Cl     28  UNL28      -0.0870
    443 CL         13.5014    0.0703   21.8880 Cl     28  UNL28      -0.0870
    444 C          14.9866    0.8593   21.3306 C.3    28  UNL28       0.1805
    445 H          14.9866    0.8594   20.2376 H      28  UNL28       0.0806
    446 CL         14.7160   -3.4271   24.2824 Cl     28  UNL28      -0.0870
    447 CL         15.5738   -0.9636   25.5784 Cl     28  UNL28      -0.0870
    448 CL         14.2020   -3.0192   27.1202 Cl     28  UNL28      -0.0870
    449 C          15.3209   -2.7051   25.7829 C.3    28  UNL28       0.1805
    450 H          16.2822   -3.1664   26.0233 H      28  UNL28       0.0806
    451 CL         12.9744    4.5884   -2.6092 Cl     28  UNL28      -0.0870
    452 CL         11.6647    1.9969   -2.3793 Cl     28  UNL28      -0.0870
    453 CL         14.5728    2.1630   -2.3939 Cl     28  UNL28      -0.0870
    454 C          13.0705    2.9654   -1.9055 C.3    28  UNL28       0.1805
    455 H          13.0705    3.0621   -0.8168 H      28  UNL28       0.0806
    456 CL         14.6268    5.1127    0.3598 Cl     28  UNL28      -0.0870
    457 CL         17.1411    6.3674    1.1268 Cl     28  UNL28      -0.0870
    458 CL         16.7942    5.3322   -1.5737 Cl     28  UNL28      -0.0870
    459 C          15.9906    6.0991   -0.1934 C.3    28  UNL28       0.1805
    460 H          15.6046    7.0695   -0.5158 H      28  UNL28       0.0806
    461 CL         14.3571    4.1654    6.8042 Cl     28  UNL28      -0.0870
    462 CL         12.2269    6.1519    6.8042 Cl     28  UNL28      -0.0870
    463 CL         15.0125    7.0034    6.8041 Cl     28  UNL28      -0.0870
    464 C          13.8654    5.7735    6.2467 C.3    28  UNL28       0.1805
    465 H          13.8654    5.7734    5.1537 H      28  UNL28       0.0806
    466 CL         15.4856    3.3947   10.9194 Cl     28  UNL28      -0.0870
    467 CL         15.8311    6.1132   11.9067 Cl     28  UNL28      -0.0870
    468 CL         13.8500    5.5527    9.8461 Cl     28  UNL28      -0.0870
    469 C          14.6726    4.9258   11.2847 C.3    28  UNL28       0.1805
    470 H          13.9217    4.7407   12.0571 H      28  UNL28       0.0806
    471 CL         11.0279    7.5459   15.1243 Cl     28  UNL28      -0.0870
    472 CL         11.7169    6.4933   12.4973 Cl     28  UNL28      -0.0870
    473 CL         13.5367    8.3146   13.8597 Cl     28  UNL28      -0.0870
    474 C          12.3480    7.0173   14.0676 C.3    28  UNL28       0.1805
    475 H          12.8463    6.1665   14.5393 H      28  UNL28       0.0806
    476 CL         16.5809    4.6357   15.6317 Cl     28  UNL28      -0.0870
    477 CL         17.3647    7.2374   14.5825 Cl     28  UNL28      -0.0870
    478 CL         15.6244    7.0707   16.9124 Cl     28  UNL28      -0.0870
    479 C          16.9701    6.3146   16.0424 C.3    28  UNL28       0.1805
    480 H          17.8457    6.3145   16.6965 H      28  UNL28       0.0806
    481 CL         14.0168    6.8515   21.0742 Cl     28  UNL28      -0.0870
    482 CL         12.2757    4.5163   21.0699 Cl     28  UNL28      -0.0870
    483 CL         12.0819    6.4736   23.2185 Cl     28  UNL28      -0.0870
    484 C          12.4115    6.2309   21.4946 C.3    28  UNL28       0.1805
    485 H          11.6664    6.7876   20.9204 H      28  UNL28       0.0806
    486 CL         16.1602    6.4707   27.0518 Cl     28  UNL28      -0.0870
    487 CL         15.8329    3.8645   25.7931 Cl     28  UNL28      -0.0870
    488 CL         15.4286    6.2941   24.2380 Cl     28  UNL28      -0.0870
    489 C          16.3468    5.5430   25.5541 C.3    28  UNL28       0.1805
    490 H          17.4046    5.5430   25.2791 H      28  UNL28       0.0806
    491 CL         16.5864    2.4200   28.8904 Cl     28  UNL28      -0.0870
    492 CL         15.2859   -0.1863   28.8904 Cl     28  UNL28      -0.0870
    493 CL         13.6790    2.2433   28.8904 Cl     28  UNL28      -0.0870
    494 C          15.1839    1.4922   28.3329 C.3    28  UNL28       0.1805
    495 H          15.1839    1.4923   27.2399 H      28  UNL28       0.0806
    496 CL         14.7583    9.2973   -2.0625 Cl     28  UNL28      -0.0870
    497 CL         17.1906   10.8036   -2.6093 Cl     28  UNL28      -0.0870
    498 CL         15.2444   11.8238   -0.6971 Cl     28  UNL28      -0.0870
    499 C          15.9920   10.3694   -1.3790 C.3    28  UNL28       0.1805
    500 H          16.5034    9.8358   -0.5738 H      28  UNL28       0.0806
    501 CL         12.8034    7.8755    0.4454 Cl     28  UNL28      -0.0870
    502 CL         11.9721   10.0840    2.1530 Cl     28  UNL28      -0.0870
    503 CL         14.8055    9.5492    1.7394 Cl     28  UNL28      -0.0870
    504 C          13.1935    9.5105    1.0049 C.3    28  UNL28       0.1805
    505 H          13.1935   10.1790    0.1402 H      28  UNL28       0.0806
    506 CL         14.1203    9.2639    5.1598 Cl     28  UNL28      -0.0870
    507 CL         13.9646   11.8250    3.7811 Cl     28  UNL28      -0.0870
    508 CL         13.3474   11.6609    6.6230 Cl     28  UNL28      -0.0870
    509 C          14.3458   11.0147    5.3097 C.3    28  UNL28       0.1805
    510 H          15.3949   11.2071    5.5487 H      28  UNL28       0.0806
    511 CL         16.1809   11.2316   12.1251 Cl     28  UNL28      -0.0870
    512 CL         14.9435   11.8248    9.5558 Cl     28  UNL28      -0.0870
    513 CL         14.7293    9.1517   10.6930 Cl     28  UNL28      -0.0870
    514 C          14.8147   10.8846   11.0519 C.3    28  UNL28       0.1805
    515 H          13.8934   11.1758   11.5629 H      28  UNL28       0.0806
    516 CL         11.1932   11.6250   17.3551 Cl     28  UNL28      -0.0870
    517 CL         13.1840    9.5212   17.0471 Cl     28  UNL28      -0.0870
    518 CL         13.0313   11.6788   15.0962 Cl     28  UNL28      -0.0870
    519 C          12.8313   11.2399   16.8011 C.3    28  UNL28       0.1805
    520 H          13.5406   11.8247   17.3922 H      28  UNL28       0.0806
    521 CL         16.6890   10.9397   17.5825 Cl     28  UNL28      -0.0870
    522 CL         17.1708    9.6177   20.1329 Cl     28  UNL28      -0.0870
    523 CL         15.2406   11.7925   19.9614 Cl     28  UNL28      -0.0870
    524 C          15.9633   10.4160   19.1115 C.3    28  UNL28       0.1805
    525 H          15.1719    9.6960   18.8877 H      28  UNL28       0.0806
    526 CL         12.3556   11.7270   25.3882 Cl     28  UNL28      -0.0870
    527 CL         10.6919    9.9493   23.7895 Cl     28  UNL28      -0.0870
    528 CL         12.9503   11.3228   22.5656 Cl     28  UNL28      -0.0870
    529 C          12.3308   10.5712   24.0457 C.3    28  UNL28       0.1805
    530 H          12.9812    9.7313   24.3030 H      28  UNL28       0.0806
    531 CL         15.3369   10.9346   27.9073 Cl     28  UNL28      -0.0870
    532 CL         17.7269    9.5972   26.9158 Cl     28  UNL28      -0.0870
    533 CL         15.6419   10.4217   25.0563 Cl     28  UNL28      -0.0870
    534 C          16.4860   10.8118   26.5645 C.3    28  UNL28       0.1805
    535 H          16.9775   11.7805   26.4429 H      28  UNL28       0.0806
    536 CL         13.2856    5.7380   28.8904 Cl     28  UNL28      -0.0870
    537 CL         10.5865    6.8330   28.8904 Cl     28  UNL28      -0.0870
    538 CL         12.8845    8.6230   28.8904 Cl     28  UNL28      -0.0870
    539 C          12.2521    7.0646   28.3329 C.3    28  UNL28       0.1805
    540 H          12.2522    7.0645   27.2399 H      28  UNL28       0.0806
    541 CL         18.8743   -3.4288   -2.6094 Cl     28  UNL28      -0.0870
    542 CL         21.7425   -2.9854   -2.3621 Cl     28  UNL28      -0.0870
    543 CL         19.8685   -1.0379   -1.2756 Cl     28  UNL28      -0.0870
    544 C          20.1618   -2.7557   -1.5956 C.3    28  UNL28       0.1805
    545 H          20.1618   -3.2883   -0.6411 H      28  UNL28       0.0806
    546 CL         21.8378   -1.9938    3.3430 Cl     28  UNL28      -0.0870
    547 CL         22.4694   -0.5146    0.9145 Cl     28  UNL28      -0.0870
    548 CL         22.4759   -3.4274    0.8890 Cl     28  UNL28      -0.0870
    549 C          21.7215   -1.9785    1.5752 C.3    28  UNL28       0.1805
    550 H          20.6637   -1.9785    1.3002 H      28  UNL28       0.0806
    551 CL         22.2766    1.6968    6.9040 Cl     28  UNL28      -0.0870
    552 CL         22.4747    0.9654    4.0916 Cl     28  UNL28      -0.0870
    553 CL         19.8589    1.2881    5.3319 Cl     28  UNL28      -0.0870
    554 C          21.5368    1.8563    5.3021 C.3    28  UNL28       0.1805
    555 H          21.5369    2.9141    5.0271 H      28  UNL28       0.0806
    556 CL         22.3515   -1.7830    8.5054 Cl     28  UNL28      -0.0870
    557 CL         21.0509   -3.1521    6.2877 Cl     28  UNL28      -0.0870
    558 CL         19.4441   -1.8757    8.3550 Cl     28  UNL28      -0.0870
    559 C          20.9489   -1.7960    7.4231 C.3    28  UNL28       0.1805
    560 H          20.9490   -0.8659    6.8490 H      28  UNL28       0.0806
    561 CL         22.1269   -2.0584   13.3886 Cl     28  UNL28      -0.0870
    562 CL         20.8263   -3.4275   11.1709 Cl     28  UNL28      -0.0870
    563 CL         19.2195   -2.1511   13.2382 Cl     28  UNL28      -0.0870
    564 C          20.7243   -2.0714   12.3063 C.3    28  UNL28       0.1805
    565 H          20.7244   -1.1413   11.7322 H      28  UNL28       0.0806
    566 CL         22.0566   -2.0369   18.3695 Cl     28  UNL28      -0.0870
    567 CL         20.7560   -3.4060   16.1518 Cl     28  UNL28      -0.0870
    568 CL         19.1492   -2.1296   18.2191 Cl     28  UNL28      -0.0870
    569 C          20.6540   -2.0499   17.2872 C.3    28  UNL28       0.1805
    570 H          20.6541   -1.1198   16.7130 H      28  UNL28       0.0806
    571 CL         22.4765   -2.0584   23.5456 Cl     28  UNL28      -0.0870
    572 CL         21.1759   -3.4275   21.3279 Cl     28  UNL28      -0.0870
    573 CL         19.5691   -2.1511   23.3952 Cl     28  UNL28      -0.0870
    574 C          21.0739   -2.0714   22.4633 C.3    28  UNL28       0.1805
    575 H          21.0740   -1.1413   21.8892 H      28  UNL28       0.0806
    576 CL         20.9480    1.3196   23.3617 Cl     28  UNL28      -0.0870
    577 CL         18.4401    0.6080   24.6610 Cl     28  UNL28      -0.0870
    578 CL         20.8093    1.1508   26.2662 Cl     28  UNL28      -0.0870
    579 C          19.9255    1.5651   24.7875 C.3    28  UNL28       0.1805
    580 H          19.6508    2.6219   24.8358 H      28  UNL28       0.0806
    581 CL         22.4651   -3.3068   27.3755 Cl     28  UNL28      -0.0870
    582 CL         19.8536   -2.9194   28.6061 Cl     28  UNL28      -0.0870
    583 CL         21.9153   -0.8816   28.8922 Cl     28  UNL28      -0.0870
    584 C          21.2294   -2.1201   27.8269 C.3    28  UNL28       0.1805
    585 H          20.8729   -1.6316   26.9165 H      28  UNL28       0.0806
    586 CL         21.8478    3.5303   -1.6154 Cl     28  UNL28      -0.0870
    587 CL         20.1223    5.6556   -2.6101 Cl     28  UNL28      -0.0870
    588 CL         21.8426    6.1334   -0.3086 Cl     28  UNL28      -0.0870
    589 C          21.6780    5.2779   -1.8515 C.3    28  UNL28       0.1805
    590 H          22.4764    5.6141   -2.5180 H      28  UNL28       0.0806
    591 CL         21.7010    3.5730    2.0130 Cl     28  UNL28      -0.0870
    592 CL         19.3112    4.2692    0.5004 Cl     28  UNL28      -0.0870
    593 CL         20.0723    1.4754    0.8165 Cl     28  UNL28      -0.0870
    594 C          20.0576    3.0759    1.5763 C.3    28  UNL28       0.1805
    595 H          19.4618    3.0170    2.4908 H      28  UNL28       0.0806
    596 CL         21.3458    6.7367    6.5213 Cl     28  UNL28      -0.0870
    597 CL         19.4906    6.5934    4.2804 Cl     28  UNL28      -0.0870
    598 CL         19.6420    4.3977    6.1884 Cl     28  UNL28      -0.0870
    599 C          19.7654    6.1522    5.9740 C.3    28  UNL28       0.1805
    600 H          18.9929    6.6283    6.5832 H      28  UNL28       0.0806
    601 CL         18.5442    3.5475    9.3261 Cl     28  UNL28      -0.0870
    602 CL         21.4124    4.0550    9.3416 Cl     28  UNL28      -0.0870
    603 CL         19.5385    6.2840    9.4095 Cl     28  UNL28      -0.0870
    604 C          19.8318    4.6117    9.9163 C.3    28  UNL28       0.1805
    605 H          19.8317    4.5784   11.0088 H      28  UNL28       0.0806
    606 CL         22.4749    2.0103   14.3886 Cl     28  UNL28      -0.0870
    607 CL         22.3886    4.3553   12.6631 Cl     28  UNL28      -0.0870
    608 CL         20.6344    2.0912   12.1325 Cl     28  UNL28      -0.0870
    609 C          21.4419    3.0452   13.3883 C.3    28  UNL28       0.1805
    610 H          20.6757    3.4886   14.0294 H      28  UNL28       0.0806
    611 CL         19.2163    3.5439   17.0461 Cl     28  UNL28      -0.0870
    612 CL         18.4171    0.8052   16.4592 Cl     28  UNL28      -0.0870
    613 CL         18.9331    1.6142   19.2094 Cl     28  UNL28      -0.0870
    614 C          18.3200    2.1315   17.6297 C.3    28  UNL28       0.1805
    615 H          17.2702    2.4135   17.7437 H      28  UNL28       0.0806
    616 CL         22.4757    6.7481   17.7346 Cl     28  UNL28      -0.0870
    617 CL         22.2689    3.9536   18.5295 Cl     28  UNL28      -0.0870
    618 CL         21.7631    6.0623   20.4743 Cl     28  UNL28      -0.0870
    619 C          21.6297    5.5879   18.7724 C.3    28  UNL28       0.1805
    620 H          20.5719    5.5880   18.4972 H      28  UNL28       0.0806
    621 CL         19.9619    6.0778   23.4752 Cl     28  UNL28      -0.0870
    622 CL         22.4763    6.1429   24.9442 Cl     28  UNL28      -0.0870
    623 CL         19.9456    6.2066   26.3851 Cl     28  UNL28      -0.0870
    624 C          20.7947    5.5855   24.9594 C.3    28  UNL28       0.1805
    625 H          20.7946    4.4936   25.0077 H      28  UNL28       0.0806
    626 CL         22.2766    5.4360   28.8904 Cl     28  UNL28      -0.0870
    627 CL         22.4747    2.5300   28.8904 Cl     28  UNL28      -0.0870
    628 CL         19.8589    3.8116   28.8904 Cl     28  UNL28      -0.0870
    629 C          21.5368    3.9258   28.3329 C.3    28  UNL28       0.1805
    630 H          21.5369    3.9259   27.2399 H      28  UNL28       0.0806
    631 CL         20.2999    8.8515   -1.7413 Cl     28  UNL28      -0.0870
    632 CL         21.3361   11.4311   -2.6110 Cl     28  UNL28      -0.0870
    633 CL         22.4502   10.1340   -0.2528 Cl     28  UNL28      -0.0870
    634 C          21.7380    9.8800   -1.8551 C.3    28  UNL28       0.1805
    635 H          22.4750    9.3723   -2.4825 H      28  UNL28       0.0806
    636 CL         17.5377   11.4908    1.9740 Cl     28  UNL28      -0.0870
    637 CL         19.8819   11.8251    0.2778 Cl     28  UNL28      -0.0870
    638 CL         19.7861    9.6553    2.2188 Cl     28  UNL28      -0.0870
    639 C          18.8386   10.6576    1.1067 C.3    28  UNL28       0.1805
    640 H          18.3876   10.0049    0.3548 H      28  UNL28       0.0806
    641 CL         17.9313   11.8010    5.7186 Cl     28  UNL28      -0.0870
    642 CL         20.8078   11.8243    6.1766 Cl     28  UNL28      -0.0870
    643 CL         19.3580    9.2980    6.1471 Cl     28  UNL28      -0.0870
    644 C          19.4535   10.9306    5.4653 C.3    28  UNL28       0.1805
    645 H          19.6254   10.8444    4.3894 H      28  UNL28       0.0806
    646 CL         22.2020    8.5553    9.3866 Cl     28  UNL28      -0.0870
    647 CL         19.8274   10.2421    9.3866 Cl     28  UNL28      -0.0870
    648 CL         22.4756   11.4552    9.3865 Cl     28  UNL28      -0.0870
    649 C          21.5015   10.0842    8.8291 C.3    28  UNL28       0.1805
    650 H          21.5016   10.0841    7.7361 H      28  UNL28       0.0806
    651 CL         22.0684   11.8109   13.3069 Cl     28  UNL28      -0.0870
    652 CL         21.7842    8.9120   13.3069 Cl     28  UNL28      -0.0870
    653 CL         19.4158   10.6078   13.3068 Cl     28  UNL28      -0.0870
    654 C          21.0896   10.4435   12.7494 C.3    28  UNL28       0.1805
    655 H          21.0896   10.4436   11.6564 H      28  UNL28       0.0806
    656 CL         19.8636    8.9175   17.1823 Cl     28  UNL28      -0.0870
    657 CL         20.0514   11.8242   17.1823 Cl     28  UNL28      -0.0870
    658 CL         22.4748   10.2080   17.1822 Cl     28  UNL28      -0.0870
    659 C          20.7965   10.3167   16.6248 C.3    28  UNL28       0.1805
    660 H          20.7964   10.3166   15.5318 H      28  UNL28       0.0806
    661 CL         20.4727    9.0324   21.0772 Cl     28  UNL28      -0.0870
    662 CL         19.6415   11.8241   21.0772 Cl     28  UNL28      -0.0870
    663 CL         22.4748   11.1480   21.0771 Cl     28  UNL28      -0.0870
    664 C          20.8629   10.6682   20.5197 C.3    28  UNL28       0.1805
    665 H          20.8629   10.6681   19.4267 H      28  UNL28       0.0806
    666 CL         19.5970   11.8242   24.9682 Cl     28  UNL28      -0.0870
    667 CL         22.4651   11.3164   24.9682 Cl     28  UNL28      -0.0870
    668 CL         20.5912    9.0864   24.9681 Cl     28  UNL28      -0.0870
    669 C          20.8845   10.7424   24.4107 C.3    28  UNL28       0.1805
    670 H          20.8844   10.7425   23.3177 H      28  UNL28       0.0806
    671 CL         19.5833   11.8105   28.8904 Cl     28  UNL28      -0.0870
    672 CL         22.4514   11.3028   28.8904 Cl     28  UNL28      -0.0870
    673 CL         20.5775    9.0727   28.8904 Cl     28  UNL28      -0.0870
    674 C          20.8708   10.7288   28.3329 C.3    28  UNL28       0.1805
    675 H          20.8707   10.7288   27.2399 H      28  UNL28       0.0806
@<TRIPOS>BOND
     1     1     4    1
     2     2     4    1
     3     3     4    1
     4     4     5    1
     5     6     9    1
     6     7     9    1
     7     8     9    1
     8     9    10    1
     9    11    14    1
    10    12    14    1
    11    13    14    1
    12    14    15    1
    13    16    19    1
    14    17    19    1
    15    18    19    1
    16    19    20    1
    17    21    24    1
    18    22    24    1
    19    23    24    1
    20    24    25    1
    21    26    29    1
    22    27    29    1
    23    28    29    1
    24    29    30    1
    25    31    34    1
    26    32    34    1
    27    33    34    1
    28    34    35    1
    29    36    39    1
    30    37    39    1
    31    38    39    1
    32    39    40    1
    33    41    44    1
    34    42    44    1
    35    43    44    1
    36    44    45    1
    37    46    49    1
    38    47    49    1
    39    48    49    1
    40    49    50    1
    41    51    54    1
    42    52    54    1
    43    53    54    1
    44    54    55    1
    45    56    59    1
    46    57    59    1
    47    58    59    1
    48    59    60    1
    49    61    64    1
    50    62    64    1
    51    63    64    1
    52    64    65    1
    53    66    69    1
    54    67    69    1
    55    68    69    1
    56    69    70    1
    57    71    74    1
    58    72    74    1
    59    73    74    1
    60    74    75    1
    61    76    79    1
    62    77    79    1
    63    78    79    1
    64    79    80    1
    65    81    84    1
    66    82    84    1
    67    83    84    1
    68    84    85    1
    69    86    89    1
    70    87    89    1
    71    88    89    1
    72    89    90    1
    73    91    94    1
    74    92    94    1
    75    93    94    1
    76    94    95    1
    77    96    99    1
    78    97    99    1
    79    98    99    1
    80    99   100    1
    81   101   104    1
    82   102   104    1
    83   103   104    1
    84   104   105    1
    85   106   109    1
    86   107   109    1
    87   108   109    1
    88   109   110    1
    89   111   114    1
    90   112   114    1
    91   113   114    1
    92   114   115    1
    93   116   119    1
    94   117   119    1
    95   118   119    1
    96   119   120    1
    97   121   124    1
    98   122   124    1
    99   123   124    1
   100   124   125    1
   101   126   129    1
   102   127   129    1
   103   128   129    1
   104   129   130    1
   105   131   134    1
   106   132   134    1
   107   133   134    1
   108   134   135    1
   109   136   139    1
   110   137   139    1
   111   138   139    1
   112   139   140    1
   113   141   144    1
   114   142   144    1
   115   143   144    1
   116   144   145    1
   117   146   149    1
   118   147   149    1
   119   148   149    1
   120   149   150    1
   121   151   154    1
   122   152   154    1
   123   153   154    1
   124   154   155    1
   125   156   159    1
   126   157   159    1
   127   158   159    1
   128   159   160    1
   129   161   164    1
   130   162   164    1
   131   163   164    1
   132   164   165    1
   133   166   169    1
   134   167   169    1
   135   168   169    1
   136   169   170    1
   137   171   174    1
   138   172   174    1
   139   173   174    1
   140   174   175    1
   141   176   179    1
   142   177   179    1
   143   178   179    1
   144   179   180    1
   145   181   184    1
   146   182   184    1
   147   183   184    1
   148   184   185    1
   149   186   189    1
   150   187   189    1
   151   188   189    1
   152   189   190    1
   153   191   194    1
   154   192   194    1
   155   193   194    1
   156   194   195    1
   157   196   199    1
   158   197   199    1
   159   198   199    1
   160   199   200    1
   161   201   204    1
   162   202   204    1
   163   203   204    1
   164   204   205    1
   165   206   209    1
   166   207   209    1
   167   208   209    1
   168   209   210    1
   169   211   214    1
   170   212   214    1
   171   213   214    1
   172   214   215    1
   173   216   219    1
   174   217   219    1
   175   218   219    1
   176   219   220    1
   177   221   224    1
   178   222   224    1
   179   223   224    1
   180   224   225    1
   181   226   229    1
   182   227   229    1
   183   228   229    1
   184   229   230    1
   185   231   234    1
   186   232   234    1
   187   233   234    1
   188   234   235    1
   189   236   239    1
   190   237   239    1
   191   238   239    1
   192   239   240    1
   193   241   244    1
   194   242   244    1
   195   243   244    1
   196   244   245    1
   197   246   249    1
   198   247   249    1
   199   248   249    1
   200   249   250    1
   201   251   254    1
   202   252   254    1
   203   253   254    1
   204   254   255    1
   205   256   259    1
   206   257   259    1
   207   258   259    1
   208   259   260    1
   209   261   264    1
   210   262   264    1
   211   263   264    1
   212   264   265    1
   213   266   269    1
   214   267   269    1
   215   268   269    1
   216   269   270    1
   217   271   274    1
   218   272   274    1
   219   273   274    1
   220   274   275    1
   221   276   279    1
   222   277   279    1
   223   278   279    1
   224   279   280    1
   225   281   284    1
   226   282   284    1
   227   283   284    1
   228   284   285    1
   229   286   289    1
   230   287   289    1
   231   288   289    1
   232   289   290    1
   233   291   294    1
   234   292   294    1
   235   293   294    1
   236   294   295    1
   237   296   299    1
   238   297   299    1
   239   298   299    1
   240   299   300    1
   241   301   304    1
   242   302   304    1
   243   303   304    1
   244   304   305    1
   245   306   309    1
   246   307   309    1
   247   308   309    1
   248   309   310    1
   249   311   314    1
   250   312   314    1
   251   313   314    1
   252   314   315    1
   253   316   319    1
   254   317   319    1
   255   318   319    1
   256   319   320    1
   257   321   324    1
   258   322   324    1
   259   323   324    1
   260   324   325    1
   261   326   329    1
   262   327   329    1
   263   328   329    1
   264   329   330    1
   265   331   334    1
   266   332   334    1
   267   333   334    1
   268   334   335    1
   269   336   339    1
   270   337   339    1
   271   338   339    1
   272   339   340    1
   273   341   344    1
   274   342   344    1
   275   343   344    1
   276   344   345    1
   277   346   349    1
   278   347   349    1
   279   348   349    1
   280   349   350    1
   281   351   354    1
   282   352   354    1
   283   353   354    1
   284   354   355    1
   285   356   359    1
   286   357   359    1
   287   358   359    1
   288   359   360    1
   289   361   364    1
   290   362   364    1
   291   363   364    1
   292   364   365    1
   293   366   369    1
   294   367   369    1
   295   368   369    1
   296   369   370    1
   297   371   374    1
   298   372   374    1
   299   373   374    1
   300   374   375    1
   301   376   379    1
   302   377   379    1
   303   378   379    1
   304   379   380    1
   305   381   384    1
   306   382   384    1
   307   383   384    1
   308   384   385    1
   309   386   389    1
   310   387   389    1
   311   388   389    1
   312   389   390    1
   313   391   394    1
   314   392   394    1
   315   393   394    1
   316   394   395    1
   317   396   399    1
   318   397   399    1
   319   398   399    1
   320   399   400    1
   321   401   404    1
   322   402   404    1
   323   403   404    1
   324   404   405    1
   325   406   409    1
   326   407   409    1
   327   408   409    1
   328   409   410    1
   329   411   414    1
   330   412   414    1
   331   413   414    1
   332   414   415    1
   333   416   419    1
   334   417   419    1
   335   418   419    1
   336   419   420    1
   337   421   424    1
   338   422   424    1
   339   423   424    1
   340   424   425    1
   341   426   429    1
   342   427   429    1
   343   428   429    1
   344   429   430    1
   345   431   434    1
   346   432   434    1
   347   433   434    1
   348   434   435    1
   349   436   439    1
   350   437   439    1
   351   438   439    1
   352   439   440    1
   353   441   444    1
   354   442   444    1
   355   443   444    1
   356   444   445    1
   357   446   449    1
   358   447   449    1
   359   448   449    1
   360   449   450    1
   361   451   454    1
   362   452   454    1
   363   453   454    1
   364   454   455    1
   365   456   459    1
   366   457   459    1
   367   458   459    1
   368   459   460    1
   369   461   464    1
   370   462   464    1
   371   463   464    1
   372   464   465    1
   373   466   469    1
   374   467   469    1
   375   468   469    1
   376   469   470    1
   377   471   474    1
   378   472   474    1
   379   473   474    1
   380   474   475    1
   381   476   479    1
   382   477   479    1
   383   478   479    1
   384   479   480    1
   385   481   484    1
   386   482   484    1
   387   483   484    1
   388   484   485    1
   389   486   489    1
   390   487   489    1
   391   488   489    1
   392   489   490    1
   393   491   494    1
   394   492   494    1
   395   493   494    1
   396   494   495    1
   397   496   499    1
   398   497   499    1
   399   498   499    1
   400   499   500    1
   401   501   504    1
   402   502   504    1
   403   503   504    1
   404   504   505    1
   405   506   509    1
   406   507   509    1
   407   508   509    1
   408   509   510    1
   409   511   514    1
   410   512   514    1
   411   513   514    1
   412   514   515    1
   413   516   519    1
   414   517   519    1
   415   518   519    1
   416   519   520    1
   417   521   524    1
   418   522   524    1
   419   523   524    1
   420   524   525    1
   421   526   529    1
   422   527   529    1
   423   528   529    1
   424   529   530    1
   425   531   534    1
   426   532   534    1
   427   533   534    1
   428   534   535    1
   429   536   539    1
   430   537   539    1
   431   538   539    1
   432   539   540    1
   433   541   544    1
   434   542   544    1
   435   543   544    1
   436   544   545    1
   437   546   549    1
   438   547   549    1
   439   548   549    1
   440   549   550    1
   441   551   554    1
   442   552   554    1
   443   553   554    1
   444   554   555    1
   445   556   559    1
   446   557   559    1
   447   558   559    1
   448   559   560    1
   449   561   564    1
   450   562   564    1
   451   563   564    1
   452   564   565    1
   453   566   569    1
   454   567   569    1
   455   568   569    1
   456   569   570    1
   457   571   574    1
   458   572   574    1
   459   573   574    1
   460   574   575    1
   461   576   579    1
   462   577   579    1
   463   578   579    1
   464   579   580    1
   465   581   584    1
   466   582   584    1
   467   583   584    1
   468   584   585    1
   469   586   589    1
   470   587   589    1
   471   588   589    1
   472   589   590    1
   473   591   594    1
   474   592   594    1
   475   593   594    1
   476   594   595    1
   477   596   599    1
   478   597   599    1
   479   598   599    1
   480   599   600    1
   481   601   604    1
   482   602   604    1
   483   603   604    1
   484   604   605    1
   485   606   609    1
   486   607   609    1
   487   608   609    1
   488   609   610    1
   489   611   614    1
   490   612   614    1
   491   613   614    1
   492   614   615    1
   493   616   619    1
   494   617   619    1
   495   618   619    1
   496   619   620    1
   497   621   624    1
   498   622   624    1
   499   623   624    1
   500   624   625    1
   501   626   629    1
   502   627   629    1
   503   628   629    1
   504   629   630    1
   505   631   634    1
   506   632   634    1
   507   633   634    1
   508   634   635    1
   509   636   639    1
   510   637   639    1
   511   638   639    1
   512   639   640    1
   513   641   644    1
   514   642   644    1
   515   643   644    1
   516   644   645    1
   517   646   649    1
   518   647   649    1
   519   648   649    1
   520   649   650    1
   521   651   654    1
   522   652   654    1
   523   653   654    1
   524   654   655    1
   525   656   659    1
   526   657   659    1
   527   658   659    1
   528   659   660    1
   529   661   664    1
   530   662   664    1
   531   663   664    1
   532   664   665    1
   533   666   669    1
   534   667   669    1
   535   668   669    1
   536   669   670    1
   537   671   674    1
   538   672   674    1
   539   673   674    1
   540   674   675    1
