@<TRIPOS>MOLECULE
*****
 2090 1672 0 0 0
SMALL
GASTEIGER

@<TRIPOS>ATOM
      1 CL          4.0941   -0.6944    2.2312 Cl      1  UNL1       -0.0870
      2 CL          2.5723   -3.1270    2.7322 Cl      1  UNL1       -0.0870
      3 CL          1.1841   -0.6415    2.1158 Cl      1  UNL1       -0.0870
      4 C           2.6362   -1.6117    1.8166 C.3     1  UNL1        0.1805
      5 H           2.6740   -1.8546    0.7516 H       1  UNL1        0.0806
      6 CL          4.0589   -0.7915    6.1267 Cl      2  UNL2       -0.0870
      7 CL          2.7076   -3.3208    5.6159 Cl      2  UNL2       -0.0870
      8 CL          1.1489   -0.9172    6.1435 Cl      2  UNL2       -0.0870
      9 C           2.6305   -1.5621    5.4165 C.3     2  UNL2        0.1805
     10 H           2.6146   -1.3376    4.3469 H       2  UNL2        0.0806
     11 CL          3.7539   -0.2575    9.1175 Cl      3  UNL3       -0.0870
     12 CL          3.2640   -3.0302    9.8637 Cl      3  UNL3       -0.0870
     13 CL          1.0419   -1.1551    9.6862 Cl      3  UNL3       -0.0870
     14 C           2.6179   -1.6134    9.0187 C.3     3  UNL3        0.1805
     15 H           2.4830   -1.8729    7.9655 H       3  UNL3        0.0806
     16 CL          4.1416   -1.0267   13.3878 Cl      4  UNL4       -0.0870
     17 CL          2.5155   -3.3168   12.6163 Cl      4  UNL4       -0.0870
     18 CL          1.2357   -0.8346   13.4442 Cl      4  UNL4       -0.0870
     19 C           2.6324   -1.5491   12.6208 C.3     4  UNL4        0.1805
     20 H           2.6353   -1.2019   11.5844 H       4  UNL4        0.0806
     21 CL          4.1786   -0.9009   16.7340 Cl      5  UNL5       -0.0870
     22 CL          2.2604   -3.0413   17.2066 Cl      5  UNL5       -0.0870
     23 CL          1.3354   -0.4275   16.3135 Cl      5  UNL5       -0.0870
     24 C           2.6428   -1.6198   16.2208 C.3     5  UNL5        0.1805
     25 H           2.7434   -1.9396   15.1805 H       5  UNL5        0.0806
     26 CL          4.0085   -0.6928   20.5069 Cl      6  UNL6       -0.0870
     27 CL          2.8330   -3.3111   20.0100 Cl      6  UNL6       -0.0870
     28 CL          1.1157   -1.0266   20.5726 Cl      6  UNL6       -0.0870
     29 C           2.6268   -1.5620   19.8182 C.3     6  UNL6        0.1805
     30 H           2.5766   -1.3366   18.7499 H       6  UNL6        0.0806
     31 CL          4.1179   -0.8363   24.0355 Cl      7  UNL7       -0.0870
     32 CL          2.4242   -3.2040   24.1330 Cl      7  UNL7       -0.0870
     33 CL          1.2321   -0.5757   23.7387 Cl      7  UNL7       -0.0870
     34 C           2.6428   -1.5983   23.4172 C.3     7  UNL7        0.1805
     35 H           2.7436   -1.7148   22.3351 H       7  UNL7        0.0806
     36 CL          4.0700   -0.6182   27.2704 Cl      8  UNL8       -0.0870
     37 CL          2.7573   -3.1412   27.8992 Cl      8  UNL8       -0.0870
     38 CL          1.1701   -0.7283   27.5204 Cl      8  UNL8       -0.0870
     39 C           2.6233   -1.6095   27.0192 C.3     8  UNL8        0.1805
     40 H           2.5398   -1.8319   25.9523 H       8  UNL8        0.0806
     41 CL          4.1908   -1.1054   31.3349 Cl      9  UNL9       -0.0870
     42 CL          2.3834   -3.3066   30.7250 Cl      9  UNL9       -0.0870
     43 CL          1.3091   -0.6892   31.4176 Cl      9  UNL9       -0.0870
     44 C           2.6333   -1.5558   30.6208 C.3     9  UNL9        0.1805
     45 H           2.6440   -1.2721   29.5653 H       9  UNL9        0.0806
     46 CL          4.0776   -0.6390   34.5259 Cl     10  UNL10      -0.0870
     47 CL          2.6658   -3.0990   35.1888 Cl     10  UNL10      -0.0870
     48 CL          1.1654   -0.6814   34.5655 Cl     10  UNL10      -0.0870
     49 C           2.6311   -1.6155   34.2211 C.3    10  UNL10       0.1805
     50 H           2.6208   -1.8942   33.1643 H      10  UNL10       0.0806
     51 CL          4.1721   -1.0243   38.5133 Cl     11  UNL11      -0.0870
     52 CL          2.4626   -3.3161   37.9568 Cl     11  UNL11      -0.0870
     53 CL          1.2752   -0.7391   38.6154 Cl     11  UNL11      -0.0870
     54 C           2.6310   -1.5577   37.8211 C.3    11  UNL11       0.1805
     55 H           2.6198   -1.2919   36.7610 H      11  UNL11       0.0806
     56 CL          2.6117    1.7153    2.6544 Cl     12  UNL12      -0.0870
     57 CL          1.2417    4.2639    2.3195 Cl     12  UNL12      -0.0870
     58 CL          4.1445    4.1329    2.1161 Cl     12  UNL12      -0.0870
     59 C           2.6232    3.2758    1.8157 C.3    12  UNL12       0.1805
     60 H           2.5396    3.0897    0.7419 H      12  UNL12       0.0806
     61 CL          2.4810    1.5667    5.6351 Cl     13  UNL13      -0.0870
     62 CL          1.2668    4.1591    6.1727 Cl     13  UNL13      -0.0870
     63 CL          4.1666    3.8999    6.0806 Cl     13  UNL13      -0.0870
     64 C           2.6305    3.3184    5.4163 C.3    13  UNL13       0.1805
     65 H           2.6157    3.5336    4.3448 H      13  UNL13       0.0806
     66 CL          2.1786    1.8202    9.9307 Cl     14  UNL14      -0.0870
     67 CL          1.3875    4.5097    9.1399 Cl     14  UNL14      -0.0870
     68 CL          4.1977    3.8925    9.5950 Cl     14  UNL14      -0.0870
     69 C           2.6437    3.2662    9.0188 C.3    14  UNL14       0.1805
     70 H           2.7532    2.9891    7.9672 H      14  UNL14       0.0806
     71 CL          2.5765    1.5588   12.7909 Cl     15  UNL15      -0.0870
     72 CL          1.1814    4.0638   13.3037 Cl     15  UNL15      -0.0870
     73 CL          4.0916    3.9735   13.3892 Cl     15  UNL15      -0.0870
     74 C           2.6362    3.3210   12.6177 C.3    15  UNL15       0.1805
     75 H           2.6750    3.5606   11.5520 H      15  UNL15       0.0806
     76 CL          2.7353    1.7177   17.0541 Cl     16  UNL16      -0.0870
     77 CL          1.2359    4.2047   16.8283 Cl     16  UNL16      -0.0870
     78 CL          4.1173    4.1971   16.4008 Cl     16  UNL16      -0.0870
     79 C           2.6153    3.2752   16.2183 C.3    16  UNL16       0.1805
     80 H           2.4569    3.0830   15.1540 H      16  UNL16       0.0806
     81 CL          2.4279    1.5717   20.0303 Cl     17  UNL17      -0.0870
     82 CL          1.2245    4.1969   20.4103 Cl     17  UNL17      -0.0870
     83 CL          4.1090    3.8688   20.6481 Cl     17  UNL17      -0.0870
     84 C           2.6439    3.3174   19.8183 C.3    17  UNL17       0.1805
     85 H           2.7553    3.5229   18.7506 H      17  UNL17       0.0806
     86 CL          2.7240    1.6958   24.2067 Cl     18  UNL18      -0.0870
     87 CL          1.2392    4.1969   24.0519 Cl     18  UNL18      -0.0870
     88 CL          4.1219    4.1862   23.6343 Cl     18  UNL18      -0.0870
     89 C           2.6155    3.2787   23.4185 C.3    18  UNL18       0.1805
     90 H           2.4600    3.1200   22.3483 H      18  UNL18       0.0806
     91 CL          2.5343    1.5872   27.4406 Cl     19  UNL19      -0.0870
     92 CL          1.1894    4.1683   27.5566 Cl     19  UNL19      -0.0870
     93 CL          4.0945    4.0311   27.7184 Cl     19  UNL19      -0.0870
     94 C           2.6389    3.3043   27.0170 C.3    19  UNL19       0.1805
     95 H           2.7034    3.3868   25.9290 H      19  UNL19       0.0806
     96 CL          2.7210    1.6511   31.2903 Cl     20  UNL20      -0.0870
     97 CL          1.2024    4.1365   31.2542 Cl     20  UNL20      -0.0870
     98 CL          4.1007    4.1961   30.9686 Cl     20  UNL20      -0.0870
     99 C           2.6209    3.2871   30.6177 C.3    20  UNL20       0.1805
    100 H           2.5156    3.2069   29.5327 H      20  UNL20       0.0806
    101 CL          2.5658    1.6263   34.8148 Cl     21  UNL21      -0.0870
    102 CL          1.1992    4.1971   34.7295 Cl     21  UNL21      -0.0870
    103 CL          4.1099    4.0958   34.7792 Cl     21  UNL21      -0.0870
    104 C           2.6339    3.2927   34.2173 C.3    21  UNL21       0.1805
    105 H           2.6517    3.2658   33.1247 H      21  UNL21       0.0806
    106 CL          2.6532    1.5807   38.2198 Cl     22  UNL22      -0.0870
    107 CL          1.1753    4.0782   38.4703 Cl     22  UNL22      -0.0870
    108 CL          4.0877    4.1071   38.4295 Cl     22  UNL22      -0.0870
    109 C           2.6303    3.3061   37.8181 C.3    22  UNL22       0.1805
    110 H           2.6141    3.4056   36.7298 H      22  UNL22       0.0806
    111 CL          4.1787    9.2572    2.1363 Cl     23  UNL23      -0.0870
    112 CL          3.0430    6.6365    2.7079 Cl     23  UNL23      -0.0870
    113 CL          1.2881    8.9138    2.2397 Cl     23  UNL23      -0.0870
    114 C           2.8310    8.1526    1.8162 C.3    23  UNL23       0.1805
    115 H           2.8199    7.9244    0.7474 H      23  UNL23       0.0806
    116 CL          4.1579    9.1491    6.0957 Cl     24  UNL24      -0.0870
    117 CL          3.0826    6.4675    5.7257 Cl     24  UNL24      -0.0870
    118 CL          1.2762    8.7251    6.0793 Cl     24  UNL24      -0.0870
    119 C           2.8304    8.1934    5.4152 C.3    24  UNL24       0.1805
    120 H           2.8136    8.3494    4.3335 H      24  UNL24       0.0806
    121 CL          4.1527    9.3021    9.2438 Cl     25  UNL25      -0.0870
    122 CL          3.1411    6.6525    9.9073 Cl     25  UNL25      -0.0870
    123 CL          1.2869    8.8670    9.5295 Cl     25  UNL25      -0.0870
    124 C           2.8248    8.1514    9.0175 C.3    25  UNL25       0.1805
    125 H           2.7551    7.9116    7.9534 H      25  UNL25       0.0806
    126 CL          4.1943    9.0785   13.3262 Cl     26  UNL26      -0.0870
    127 CL          3.0133    6.4539   12.8777 Cl     26  UNL26      -0.0870
    128 CL          1.2980    8.7712   13.2933 Cl     26  UNL26      -0.0870
    129 C           2.8313    8.1967   12.6165 C.3    26  UNL26       0.1805
    130 H           2.8237    8.3842   11.5398 H      26  UNL26       0.0806
    131 CL          4.1721    9.2577   16.5746 Cl     27  UNL27      -0.0870
    132 CL          3.0071    6.6491   17.1425 Cl     27  UNL27      -0.0870
    133 CL          1.2788    8.9220   16.5664 Cl     27  UNL27      -0.0870
    134 C           2.8355    8.1508   16.2183 C.3    27  UNL27       0.1805
    135 H           2.8671    7.9050   15.1537 H      27  UNL27       0.0806
    136 CL          4.1885    9.1240   20.4665 Cl     28  UNL28      -0.0870
    137 CL          3.0755    6.4611   20.0732 Cl     28  UNL28      -0.0870
    138 CL          1.3050    8.7226   20.5587 Cl     28  UNL28      -0.0870
    139 C           2.8258    8.1963   19.8174 C.3    28  UNL28       0.1805
    140 H           2.7658    8.3804   18.7417 H      28  UNL28       0.0806
    141 CL          4.1155    9.2983   23.8758 Cl     28  UNL28      -0.0870
    142 CL          3.0011    6.6479   24.3424 Cl     28  UNL28      -0.0870
    143 CL          1.2424    8.8687   23.6642 Cl     28  UNL28      -0.0870
    144 C           2.8442    8.1520   23.4194 C.3    28  UNL28       0.1805
    145 H           2.9574    7.9175   22.3578 H      28  UNL28       0.0806
    146 CL          4.0625    9.0032   27.6747 Cl     28  UNL28      -0.0870
    147 CL          2.7297    6.4460   27.2645 Cl     28  UNL28      -0.0870
    148 CL          1.1552    8.8460   27.7603 Cl     28  UNL28      -0.0870
    149 C           2.6277    8.1974   27.0183 C.3    28  UNL28       0.1805
    150 H           2.5856    8.3919   25.9436 H      28  UNL28       0.0806
    151 CL          4.0163    9.1872   31.0261 Cl     28  UNL28      -0.0870
    152 CL          2.7150    6.6284   31.5192 Cl     28  UNL28      -0.0870
    153 CL          1.1112    8.9918   30.9473 Cl     28  UNL28      -0.0870
    154 C           2.6368    8.1526   30.6195 C.3    28  UNL28       0.1805
    155 H           2.6812    7.9244   29.5515 H      28  UNL28       0.0806
    156 CL          4.0385    9.0262   34.9020 Cl     28  UNL28      -0.0870
    157 CL          2.7416    6.4495   34.4983 Cl     28  UNL28      -0.0870
    158 CL          1.1316    8.8424   34.9065 Cl     28  UNL28      -0.0870
    159 C           2.6308    8.1954   34.2187 C.3    28  UNL28       0.1805
    160 H           2.6181    8.3709   33.1400 H      28  UNL28       0.0806
    161 CL          4.0558    9.1237   38.2493 Cl     28  UNL28      -0.0870
    162 CL          2.7064    6.5631   38.5765 Cl     28  UNL28      -0.0870
    163 CL          1.1457    9.0058   38.2895 Cl     28  UNL28      -0.0870
    164 C           2.6311    8.1627   37.8185 C.3    28  UNL28       0.1805
    165 H           2.6216    8.0292   36.7337 H      28  UNL28       0.0806
    166 CL          1.2556   14.0365    2.3430 Cl     28  UNL28      -0.0870
    167 CL          4.1567   13.7767    2.3571 Cl     28  UNL28      -0.0870
    168 CL          2.4807   11.3949    2.4128 Cl     28  UNL28      -0.0870
    169 C           2.6325   13.0554    1.8137 C.3    28  UNL28       0.1805
    170 H           2.6352   13.0278    0.7210 H      28  UNL28       0.0806
    171 CL          1.2971   14.0668    6.0025 Cl     28  UNL28      -0.0870
    172 CL          4.1847   13.6852    5.9984 Cl     28  UNL28      -0.0870
    173 CL          2.4103   11.3767    5.9127 Cl     28  UNL28      -0.0870
    174 C           2.6325   13.0623    5.4141 C.3    28  UNL28       0.1805
    175 H           2.6359   13.1002    4.3218 H      28  UNL28       0.0806
    176 CL          1.2136   14.0220    9.4164 Cl     28  UNL28      -0.0870
    177 CL          4.1175   13.8508    9.5646 Cl     28  UNL28      -0.0870
    178 CL          2.5056   11.4300    9.7271 Cl     28  UNL28      -0.0870
    179 C           2.6374   13.0471    9.0151 C.3    28  UNL28       0.1805
    180 H           2.6865   12.9414    7.9283 H      28  UNL28       0.0806
    181 CL          1.2710   13.9388   13.3592 Cl     28  UNL28      -0.0870
    182 CL          4.1699   13.6729   13.2603 Cl     28  UNL28      -0.0870
    183 CL          2.4787   11.3325   12.8770 Cl     28  UNL28      -0.0870
    184 C           2.6301   13.0785   12.6166 C.3    28  UNL28       0.1805
    185 H           2.6108   13.2687   11.5405 H      28  UNL28       0.0806
    186 CL          1.2496   14.0896   16.5497 Cl     28  UNL28      -0.0870
    187 CL          4.1468   13.8288   16.6986 Cl     28  UNL28      -0.0870
    188 CL          2.4535   11.4847   17.0491 Cl     28  UNL28      -0.0870
    189 C           2.6362   13.0383   16.2170 C.3    28  UNL28       0.1805
    190 H           2.6745   12.8498   15.1411 H      28  UNL28       0.0806
    191 CL          1.2743   13.9088   20.6066 Cl     28  UNL28      -0.0870
    192 CL          4.1722   13.6380   20.4929 Cl     28  UNL28      -0.0870
    193 CL          2.4724   11.3277   19.9850 Cl     28  UNL28      -0.0870
    194 C           2.6302   13.0846   19.8187 C.3    28  UNL28       0.1805
    195 H           2.6115   13.3323   18.7543 H      28  UNL28       0.0806
    196 CL          1.3492   14.2190   23.7042 Cl     28  UNL28      -0.0870
    197 CL          4.2022   13.6826   23.9419 Cl     28  UNL28      -0.0870
    198 CL          2.2818   11.5143   24.2507 Cl     28  UNL28      -0.0870
    199 C           2.6377   13.0372   23.4181 C.3    28  UNL28       0.1805
    200 H           2.6896   12.8382   22.3446 H      28  UNL28       0.0806
    201 CL          4.1469   13.7320   27.6562 Cl     28  UNL28      -0.0870
    202 CL          2.5684   11.3230   27.2212 Cl     28  UNL28      -0.0870
    203 CL          1.2407   13.8469   27.8145 Cl     28  UNL28      -0.0870
    204 C           2.6269   13.0821   27.0190 C.3    28  UNL28       0.1805
    205 H           2.5776   13.3074   25.9506 H      28  UNL28       0.0806
    206 CL          4.1779   13.7364   31.1494 Cl     28  UNL28      -0.0870
    207 CL          2.3225   11.5139   31.4691 Cl     28  UNL28      -0.0870
    208 CL          1.3122   14.1810   30.8766 Cl     28  UNL28      -0.0870
    209 C           2.6394   13.0358   30.6193 C.3    28  UNL28       0.1805
    210 H           2.7085   12.8242   29.5492 H      28  UNL28       0.0806
    211 CL          4.1615   13.6799   34.8785 Cl     28  UNL28      -0.0870
    212 CL          2.5106   11.3257   34.4134 Cl     28  UNL28      -0.0870
    213 CL          1.2589   13.8892   35.0018 Cl     28  UNL28      -0.0870
    214 C           2.6291   13.0827   34.2199 C.3    28  UNL28       0.1805
    215 H           2.6004   13.3139   33.1520 H      28  UNL28       0.0806
    216 CL          4.1577   13.8106   38.2935 Cl     28  UNL28      -0.0870
    217 CL          2.4373   11.4880   38.6542 Cl     28  UNL28      -0.0870
    218 CL          1.2633   14.1070   38.1568 Cl     28  UNL28      -0.0870
    219 C           2.6355   13.0380   37.8195 C.3    28  UNL28       0.1805
    220 H           2.6668   12.8478   36.7436 H      28  UNL28       0.0806
    221 CL          4.0435   18.5676    2.7273 Cl     28  UNL28      -0.0870
    222 CL          2.7576   16.2588    1.5024 Cl     28  UNL28      -0.0870
    223 CL          1.1387   18.3531    2.7182 Cl     28  UNL28      -0.0870
    224 C           2.6283   17.9955    1.8281 C.3    28  UNL28       0.1805
    225 H           2.5924   18.5231    0.8715 H      28  UNL28       0.0806
    226 CL          4.0352   18.9628    5.6162 Cl     28  UNL28      -0.0870
    227 CL          2.8542   16.3814    6.2686 Cl     28  UNL28      -0.0870
    228 CL          1.1564   18.7325    5.9956 Cl     28  UNL28      -0.0870
    229 C           2.6191   17.9170    5.4170 C.3    28  UNL28       0.1805
    230 H           2.4958   17.7043    4.3520 H      28  UNL28       0.0806
    231 CL          4.0602   18.7155    9.7479 Cl     28  UNL28      -0.0870
    232 CL          2.6893   16.2035    9.2053 Cl     28  UNL28      -0.0870
    233 CL          1.1491   18.6190    9.7323 Cl     28  UNL28      -0.0870
    234 C           2.6319   17.9641    9.0170 C.3    28  UNL28       0.1805
    235 H           2.6300   18.1960    7.9489 H      28  UNL28       0.0806
    236 CL          4.0150   18.6041   13.5486 Cl     28  UNL28      -0.0870
    237 CL          2.7726   16.2421   12.3819 Cl     28  UNL28      -0.0870
    238 CL          1.1123   18.3845   13.4487 Cl     28  UNL28      -0.0870
    239 C           2.6318   17.9910   12.6268 C.3    28  UNL28       0.1805
    240 H           2.6289   18.4764   11.6475 H      28  UNL28       0.0806
    241 CL          4.0497   18.9406   16.4381 Cl     28  UNL28      -0.0870
    242 CL          2.8614   16.3309   16.9496 Cl     28  UNL28      -0.0870
    243 CL          1.1837   18.7117   16.9051 Cl     28  UNL28      -0.0870
    244 C           2.6148   17.9252   16.2174 C.3    28  UNL28       0.1805
    245 H           2.4509   17.7897   15.1453 H      28  UNL28       0.0806
    246 CL          4.0781   18.7295   20.4867 Cl     28  UNL28      -0.0870
    247 CL          2.7102   16.2041   20.0016 Cl     28  UNL28      -0.0870
    248 CL          1.1703   18.6033   20.5992 Cl     28  UNL28      -0.0870
    249 C           2.6267   17.9642   19.8184 C.3    28  UNL28       0.1805
    250 H           2.5754   18.1970   18.7517 H      28  UNL28       0.0806
    251 CL          3.9064   19.1179   23.6348 Cl     28  UNL28      -0.0870
    252 CL          3.0682   16.3785   24.1612 Cl     28  UNL28      -0.0870
    253 CL          1.0938   18.5193   24.0984 Cl     28  UNL28      -0.0870
    254 C           2.6171   17.9223   23.4183 C.3    28  UNL28       0.1805
    255 H           2.4751   17.7600   22.3468 H      28  UNL28       0.0806
    256 CL          4.1257   18.4526   27.8596 Cl     28  UNL28      -0.0870
    257 CL          2.4832   16.2141   26.9790 Cl     28  UNL28      -0.0870
    258 CL          1.2247   18.7079   27.8048 Cl     28  UNL28      -0.0870
    259 C           2.6376   17.9784   27.0233 C.3    28  UNL28       0.1805
    260 H           2.6894   18.3451   25.9949 H      28  UNL28       0.0806
    261 CL          3.9548   18.9668   31.1999 Cl     28  UNL28      -0.0870
    262 CL          3.0190   16.2446   30.7547 Cl     28  UNL28      -0.0870
    263 CL          1.1315   18.3266   31.5212 Cl     28  UNL28      -0.0870
    264 C           2.6139   17.9641   30.6209 C.3    28  UNL28       0.1805
    265 H           2.4414   18.1959   29.5668 H      28  UNL28       0.0806
    266 CL          4.0490   18.3848   35.2372 Cl     28  UNL28      -0.0870
    267 CL          2.6934   16.3287   33.6818 Cl     28  UNL28      -0.0870
    268 CL          1.1387   18.3127   35.1416 Cl     28  UNL28      -0.0870
    269 C           2.6335   18.0089   34.2402 C.3    28  UNL28       0.1805
    270 H           2.6461   18.6631   33.3647 H      28  UNL28       0.0806
    271 CL          4.1107   18.3323   38.7598 Cl     28  UNL28      -0.0870
    272 CL          2.7014   16.4478   37.0431 Cl     28  UNL28      -0.0870
    273 CL          1.2118   18.1000   38.9236 Cl     28  UNL28      -0.0870
    274 C           2.6210   18.0217   37.8525 C.3    28  UNL28       0.1805
    275 H           2.5158   18.7963   37.0886 H      28  UNL28       0.0806
    276 CL          4.0946   23.5894    2.4715 Cl     28  UNL28      -0.0870
    277 CL          2.6379   21.0923    2.1155 Cl     28  UNL28      -0.0870
    278 CL          1.1821   23.5840    2.5114 Cl     28  UNL28      -0.0870
    279 C           2.6305   22.8382    1.8149 C.3    28  UNL28       0.1805
    280 H           2.6155   23.0011    0.7342 H      28  UNL28       0.0806
    281 CL          4.0637   23.7859    5.7361 Cl     28  UNL28      -0.0870
    282 CL          2.6911   21.2932    6.3579 Cl     28  UNL28      -0.0870
    283 CL          1.1526   23.6988    5.7825 Cl     28  UNL28      -0.0870
    284 C           2.6312   22.7934    5.4174 C.3    28  UNL28       0.1805
    285 H           2.6221   22.5337    4.3557 H      28  UNL28       0.0806
    286 CL          4.1076   23.5469    9.6950 Cl     28  UNL28      -0.0870
    287 CL          2.5987   21.0895    9.2849 Cl     28  UNL28      -0.0870
    288 CL          1.1955   23.6052    9.7171 Cl     28  UNL28      -0.0870
    289 C           2.6317   22.8403    9.0160 C.3    28  UNL28       0.1805
    290 H           2.6272   23.0230    7.9384 H      28  UNL28       0.0806
    291 CL          4.1292   23.5910   13.1654 Cl     28  UNL28      -0.0870
    292 CL          2.4768   21.1983   13.3356 Cl     28  UNL28      -0.0870
    293 CL          1.2289   23.8098   13.0074 Cl     28  UNL28      -0.0870
    294 C           2.6375   22.8090   12.6156 C.3    28  UNL28       0.1805
    295 H           2.6882   22.6968   11.5295 H      28  UNL28       0.0806
    296 CL          4.1125   23.7038   16.5593 Cl     28  UNL28      -0.0870
    297 CL          2.6017   21.2822   17.1400 Cl     28  UNL28      -0.0870
    298 CL          1.2007   23.7750   16.5848 Cl     28  UNL28      -0.0870
    299 C           2.6305   22.7948   16.2182 C.3    28  UNL28       0.1805
    300 H           2.6152   22.5491   15.1533 H      28  UNL28       0.0806
    301 CL          4.1083   23.4968   20.5536 Cl     28  UNL28      -0.0870
    302 CL          2.5871   21.0832   19.9665 Cl     28  UNL28      -0.0870
    303 CL          1.1966   23.5724   20.5623 Cl     28  UNL28      -0.0870
    304 C           2.6325   22.8481   19.8188 C.3    28  UNL28       0.1805
    305 H           2.6360   23.1044   18.7563 H      28  UNL28       0.0806
    306 CL          4.1784   23.4624   24.0017 Cl     28  UNL28      -0.0870
    307 CL          2.1780   21.3822   24.3960 Cl     28  UNL28      -0.0870
    308 CL          1.3725   24.0169   23.4503 Cl     28  UNL28      -0.0870
    309 C           2.6468   22.7861   23.4224 C.3    28  UNL28       0.1805
    310 H           2.7850   22.4575   22.3891 H      28  UNL28       0.0806
    311 CL          3.9402   23.7972   27.7312 Cl     28  UNL28      -0.0870
    312 CL          2.9885   21.1197   27.0918 Cl     28  UNL28      -0.0870
    313 CL          1.0921   23.1980   27.8461 Cl     28  UNL28      -0.0870
    314 C           2.6213   22.8514   27.0210 C.3    28  UNL28       0.1805
    315 H           2.5186   23.1386   25.9714 H      28  UNL28       0.0806
    316 CL          4.1606   23.4953   31.2142 Cl     28  UNL28      -0.0870
    317 CL          2.2075   21.3666   31.5857 Cl     28  UNL28      -0.0870
    318 CL          1.3454   23.9877   30.6520 Cl     28  UNL28      -0.0870
    319 C           2.6481   22.7871   30.6231 C.3    28  UNL28       0.1805
    320 H           2.7990   22.4682   29.5885 H      28  UNL28       0.0806
    321 CL          4.1293   23.5385   34.8494 Cl     28  UNL28      -0.0870
    322 CL          2.6237   21.0840   34.4103 Cl     28  UNL28      -0.0870
    323 CL          1.2224   23.5608   35.0321 Cl     28  UNL28      -0.0870
    324 C           2.6252   22.8454   34.2200 C.3    28  UNL28       0.1805
    325 H           2.5600   23.0762   33.1537 H      28  UNL28       0.0806
    326 CL          4.0645   23.7065   38.3658 Cl     28  UNL28      -0.0870
    327 CL          2.5563   21.2284   38.6271 Cl     28  UNL28      -0.0870
    328 CL          1.1630   23.7339   38.1114 Cl     28  UNL28      -0.0870
    329 C           2.6420   22.8029   37.8195 C.3    28  UNL28       0.1805
    330 H           2.7347   22.6331   36.7437 H      28  UNL28       0.0806
    331 CL          1.2575   28.5567    2.5646 Cl     28  UNL28      -0.0870
    332 CL          4.1607   28.3719    2.4178 Cl     28  UNL28      -0.0870
    333 CL          2.5315   25.9763    2.1142 Cl     28  UNL28      -0.0870
    334 C           2.6275   27.7201    1.8151 C.3    28  UNL28       0.1805
    335 H           2.5835   27.8868    0.7358 H      28  UNL28       0.0806
    336 CL          1.2159   28.6895    5.7370 Cl     28  UNL28      -0.0870
    337 CL          4.1190   28.5217    5.9056 Cl     28  UNL28      -0.0870
    338 CL          2.4990   26.1255    6.2504 Cl     28  UNL28      -0.0870
    339 C           2.6376   27.6823    5.4159 C.3    28  UNL28       0.1805
    340 H           2.6890   27.4928    4.3407 H      28  UNL28       0.0806
    341 CL          1.2188   28.5395    9.7001 Cl     28  UNL28      -0.0870
    342 CL          4.1274   28.3835    9.6989 Cl     28  UNL28      -0.0870
    343 CL          2.5395   25.9744    9.2999 Cl     28  UNL28      -0.0870
    344 C           2.6331   27.7207    9.0159 C.3    28  UNL28       0.1805
    345 H           2.6418   27.8936    7.9367 H      28  UNL28       0.0806
    346 CL          1.1289   28.4256   13.2206 Cl     28  UNL28      -0.0870
    347 CL          4.0258   28.6865   13.0658 Cl     28  UNL28      -0.0870
    348 CL          2.8078   26.0454   13.2278 Cl     28  UNL28      -0.0870
    349 C           2.6264   27.6980   12.6150 C.3    28  UNL28       0.1805
    350 H           2.5718   27.6562   11.5242 H      28  UNL28       0.0806
    351 CL          2.7325   26.0959   16.9887 Cl     28  UNL28      -0.0870
    352 CL          1.1596   28.5343   16.7344 Cl     28  UNL28      -0.0870
    353 CL          4.0660   28.6533   16.5818 Cl     28  UNL28      -0.0870
    354 C           2.6267   27.6869   16.2164 C.3    28  UNL28       0.1805
    355 H           2.5759   27.5412   15.1343 H      28  UNL28       0.0806
    356 CL          4.0627   28.4509   20.5766 Cl     28  UNL28      -0.0870
    357 CL          2.6700   25.9646   19.9743 Cl     28  UNL28      -0.0870
    358 CL          1.1510   28.3864   20.5328 Cl     28  UNL28      -0.0870
    359 C           2.6333   27.7290   19.8187 C.3    28  UNL28       0.1805
    360 H           2.6437   27.9809   18.7552 H      28  UNL28       0.0806
    361 CL          3.9951   28.7809   23.5743 Cl     28  UNL28      -0.0870
    362 CL          2.9197   26.1779   24.3171 Cl     28  UNL28      -0.0870
    363 CL          1.1303   28.4523   23.9851 Cl     28  UNL28      -0.0870
    364 C           2.6191   27.6757   23.4199 C.3    28  UNL28       0.1805
    365 H           2.4964   27.4249   22.3631 H      28  UNL28       0.0806
    366 CL          4.1946   28.1205   27.7702 Cl     28  UNL28      -0.0870
    367 CL          2.2876   25.9988   27.1818 Cl     28  UNL28      -0.0870
    368 CL          1.3396   28.6969   27.7353 Cl     28  UNL28      -0.0870
    369 C           2.6386   27.7277   27.0194 C.3    28  UNL28       0.1805
    370 H           2.7002   27.9678   25.9549 H      28  UNL28       0.0806
    371 CL          3.9953   28.7811   30.7619 Cl     28  UNL28      -0.0870
    372 CL          2.9370   26.1665   31.4886 Cl     28  UNL28      -0.0870
    373 CL          1.1401   28.4444   31.2293 Cl     28  UNL28      -0.0870
    374 C           2.6167   27.6773   30.6206 C.3    28  UNL28       0.1805
    375 H           2.4714   27.4423   29.5631 H      28  UNL28       0.0806
    376 CL          4.0925   28.4119   34.9550 Cl     28  UNL28      -0.0870
    377 CL          2.6154   25.9648   34.3946 Cl     28  UNL28      -0.0870
    378 CL          1.1799   28.4396   34.9422 Cl     28  UNL28      -0.0870
    379 C           2.6329   27.7277   34.2200 C.3    28  UNL28       0.1805
    380 H           2.6399   27.9678   33.1537 H      28  UNL28       0.0806
    381 CL          4.1594   28.5176   38.0938 Cl     28  UNL28      -0.0870
    382 CL          2.5925   26.1340   38.6830 Cl     28  UNL28      -0.0870
    383 CL          1.2612   28.6993   38.3205 Cl     28  UNL28      -0.0870
    384 C           2.6219   27.6809   37.8201 C.3    28  UNL28       0.1805
    385 H           2.5257   27.4798   36.7501 H      28  UNL28       0.0806
    386 CL          3.9243   33.6008    2.4940 Cl     28  UNL28      -0.0870
    387 CL          2.9445   30.8837    2.1180 Cl     28  UNL28      -0.0870
    388 CL          1.0597   33.0737    2.4868 Cl     28  UNL28      -0.0870
    389 C           2.6293   32.6005    1.8149 C.3    28  UNL28       0.1805
    390 H           2.6028   32.7597    0.7339 H      28  UNL28       0.0806
    391 CL          4.0979   33.5009    5.7120 Cl     28  UNL28      -0.0870
    392 CL          2.6740   31.0321    6.3134 Cl     28  UNL28      -0.0870
    393 CL          1.1888   33.4961    5.8579 Cl     28  UNL28      -0.0870
    394 C           2.6265   32.5593    5.4168 C.3    28  UNL28       0.1805
    395 H           2.5734   32.3301    4.3494 H      28  UNL28       0.0806
    396 CL          4.0409   33.4646    9.6424 Cl     28  UNL28      -0.0870
    397 CL          2.7712   30.8620    9.3287 Cl     28  UNL28      -0.0870
    398 CL          1.1382   33.2403    9.7305 Cl     28  UNL28      -0.0870
    399 C           2.6274   32.5998    9.0156 C.3    28  UNL28       0.1805
    400 H           2.5829   32.7519    7.9342 H      28  UNL28       0.0806
    401 CL          4.1348   33.2996   13.2331 Cl     28  UNL28      -0.0870
    402 CL          2.4021   30.9594   13.3068 Cl     28  UNL28      -0.0870
    403 CL          1.2513   33.6136   12.9669 Cl     28  UNL28      -0.0870
    404 C           2.6416   32.5730   12.6157 C.3    28  UNL28       0.1805
    405 H           2.7309   32.4729   11.5310 H      28  UNL28       0.0806
    406 CL          1.3077   33.6229   16.7658 Cl     28  UNL28      -0.0870
    407 CL          4.1928   33.3337   16.4887 Cl     28  UNL28      -0.0870
    408 CL          2.5412   30.9984   17.0396 Cl     28  UNL28      -0.0870
    409 C           2.6195   32.5659   16.2173 C.3    28  UNL28       0.1805
    410 H           2.4994   32.3976   15.1440 H      28  UNL28       0.0806
    411 CL          1.1985   33.3850   20.5022 Cl     28  UNL28      -0.0870
    412 CL          4.1080   33.2576   20.5566 Cl     28  UNL28      -0.0870
    413 CL          2.5542   30.8497   20.0345 Cl     28  UNL28      -0.0870
    414 C           2.6353   32.6064   19.8179 C.3    28  UNL28       0.1805
    415 H           2.6646   32.8197   18.7463 H      28  UNL28       0.0806
    416 CL          1.3557   33.7461   23.7386 Cl     28  UNL28      -0.0870
    417 CL          4.2236   33.2385   23.7799 Cl     28  UNL28      -0.0870
    418 CL          2.3543   31.0821   24.3634 Cl     28  UNL28      -0.0870
    419 C           2.6289   32.5561   23.4194 C.3    28  UNL28       0.1805
    420 H           2.5980   32.2958   22.3583 H      28  UNL28       0.0806
    421 CL          1.0558   32.9717   27.7548 Cl     28  UNL28      -0.0870
    422 CL          3.8898   33.6421   27.6991 Cl     28  UNL28      -0.0870
    423 CL          3.0336   30.8955   27.2430 Cl     28  UNL28      -0.0870
    424 C           2.6249   32.6049   27.0186 C.3    28  UNL28       0.1805
    425 H           2.5566   32.8042   25.9461 H      28  UNL28       0.0806
    426 CL          1.3044   33.7036   30.8093 Cl     28  UNL28      -0.0870
    427 CL          4.1653   33.2837   31.1600 Cl     28  UNL28      -0.0870
    428 CL          2.3131   31.0636   31.5143 Cl     28  UNL28      -0.0870
    429 C           2.6421   32.5575   30.6203 C.3    28  UNL28       0.1805
    430 H           2.7357   32.3102   29.5597 H      28  UNL28       0.0806
    431 CL          1.2508   33.4367   34.9553 Cl     28  UNL28      -0.0870
    432 CL          4.1552   33.2421   34.8526 Cl     28  UNL28      -0.0870
    433 CL          2.5221   30.8563   34.4980 Cl     28  UNL28      -0.0870
    434 C           2.6294   32.6026   34.2188 C.3    28  UNL28       0.1805
    435 H           2.6031   32.7808   33.1407 H      28  UNL28       0.0806
    436 CL          0.9431   32.7495   38.3111 Cl     28  UNL28      -0.0870
    437 CL          3.5438   34.0499   38.1391 Cl     28  UNL28      -0.0870
    438 CL          3.3777   31.1876   38.6535 Cl     28  UNL28      -0.0870
    439 C           2.6349   32.5631   37.8195 C.3    28  UNL28       0.1805
    440 H           2.6611   32.3683   36.7443 H      28  UNL28       0.0806
    441 CL          6.7429    2.6260    2.3999 Cl     28  UNL28      -0.0870
    442 CL          9.4385    1.5255    2.3145 Cl     28  UNL28      -0.0870
    443 CL          7.1384   -0.2598    2.3981 Cl     28  UNL28      -0.0870
    444 C           7.7548    1.2951    1.8137 C.3    28  UNL28       0.1805
    445 H           7.7184    1.2908    0.7213 H      28  UNL28       0.0806
    446 CL          6.0948    1.6257    5.9118 Cl     28  UNL28      -0.0870
    447 CL          8.8483    2.5734    5.9803 Cl     28  UNL28      -0.0870
    448 CL          8.2904   -0.2853    6.0215 Cl     28  UNL28      -0.0870
    449 C           7.7623    1.2932    5.4141 C.3    28  UNL28       0.1805
    450 H           7.7972    1.2706    4.3219 H      28  UNL28       0.0806
    451 CL          6.1246    1.4590    9.7016 Cl     28  UNL28      -0.0870
    452 CL          8.8449    2.4986    9.7593 Cl     28  UNL28      -0.0870
    453 CL          8.3765   -0.3268    9.2279 Cl     28  UNL28      -0.0870
    454 C           7.7525    1.3180    9.0168 C.3    28  UNL28       0.1805
    455 H           7.6945    1.5290    7.9459 H      28  UNL28       0.0806
    456 CL          6.5973    2.5864   12.8196 Cl     28  UNL28      -0.0870
    457 CL          9.3684    1.7680   13.1872 Cl     28  UNL28      -0.0870
    458 CL          7.2235   -0.1815   13.4758 Cl     28  UNL28      -0.0870
    459 C           7.7662    1.2705   12.6178 C.3    28  UNL28       0.1805
    460 H           7.8376    1.0343   11.5530 H      28  UNL28       0.0806
    461 CL          6.1273    1.5401   16.8806 Cl     28  UNL28      -0.0870
    462 CL          8.8705    2.5193   16.8689 Cl     28  UNL28      -0.0870
    463 CL          8.3389   -0.3277   16.5582 Cl     28  UNL28      -0.0870
    464 C           7.7533    1.3092   16.2162 C.3    28  UNL28       0.1805
    465 H           7.7030    1.4368   15.1318 H      28  UNL28       0.0806
    466 CL          6.7173    2.6858   20.0072 Cl     28  UNL28      -0.0870
    467 CL          9.3857    1.6087   20.4582 Cl     28  UNL28      -0.0870
    468 CL          7.0622   -0.1404   20.6218 Cl     28  UNL28      -0.0870
    469 C           7.7683    1.2722   19.8184 C.3    28  UNL28       0.1805
    470 H           7.8594    1.0514   18.7519 H      28  UNL28       0.0806
    471 CL          6.1151    1.5476   24.0401 Cl     28  UNL28      -0.0870
    472 CL          8.8444    2.5645   24.0154 Cl     28  UNL28      -0.0870
    473 CL          8.3572   -0.3032   23.8621 Cl     28  UNL28      -0.0870
    474 C           7.7551    1.3024   23.4163 C.3    28  UNL28       0.1805
    475 H           7.7212    1.3664   22.3257 H      28  UNL28       0.0806
    476 CL          8.3092   -0.2919   27.5792 Cl     28  UNL28      -0.0870
    477 CL          6.0973    1.6030   27.5431 Cl     28  UNL28      -0.0870
    478 CL          8.8440    2.5712   27.5991 Cl     28  UNL28      -0.0870
    479 C           7.7607    1.2959   27.0164 C.3    28  UNL28       0.1805
    480 H           7.7818    1.2995   25.9237 H      28  UNL28       0.0806
    481 CL          8.1768   -0.3501   31.1068 Cl     28  UNL28      -0.0870
    482 CL          6.1427    1.7325   31.2028 Cl     28  UNL28      -0.0870
    483 CL          8.9653    2.4519   31.2122 Cl     28  UNL28      -0.0870
    484 C           7.7577    1.3001   30.6169 C.3    28  UNL28       0.1805
    485 H           7.7504    1.3432   29.5248 H      28  UNL28       0.0806
    486 CL          8.3488   -0.3176   34.6021 Cl     28  UNL28      -0.0870
    487 CL          6.1141    1.5349   34.8445 Cl     28  UNL28      -0.0870
    488 CL          8.8482    2.5394   34.8706 Cl     28  UNL28      -0.0870
    489 C           7.7554    1.3069   34.2178 C.3    28  UNL28       0.1805
    490 H           7.7265    1.4141   33.1305 H      28  UNL28       0.0806
    491 CL          8.2369   -0.3336   38.3075 Cl     28  UNL28      -0.0870
    492 CL          6.1292    1.6743   38.4075 Cl     28  UNL28      -0.0870
    493 CL          8.9240    2.4951   38.4092 Cl     28  UNL28      -0.0870
    494 C           7.7573    1.3000   37.8177 C.3    28  UNL28       0.1805
    495 H           7.7456    1.3420   36.7256 H      28  UNL28       0.0806
    496 CL          8.8442    7.4693    0.3466 Cl     28  UNL28      -0.0870
    497 CL          8.3509    4.5986    0.3555 Cl     28  UNL28      -0.0870
    498 CL          6.1122    6.4614    0.4108 Cl     28  UNL28      -0.0870
    499 C           7.7559    6.1770   -0.1863 C.3    28  UNL28       0.1805
    500 H           7.7298    6.1782   -1.2790 H      28  UNL28       0.0806
    501 CL          8.8442    7.4690    3.9482 Cl     28  UNL28      -0.0870
    502 CL          8.3760    4.5945    3.9012 Cl     28  UNL28      -0.0870
    503 CL          6.1237    6.4345    4.0629 Cl     28  UNL28      -0.0870
    504 C           7.7527    6.1797    3.4142 C.3    28  UNL28       0.1805
    505 H           7.6964    6.2068    2.3230 H      28  UNL28       0.0806
    506 CL          8.8440    7.5005    7.4354 Cl     28  UNL28      -0.0870
    507 CL          8.3358    4.6466    7.7202 Cl     28  UNL28      -0.0870
    508 CL          6.1061    6.5135    7.5536 Cl     28  UNL28      -0.0870
    509 C           7.7578    6.1655    7.0150 C.3    28  UNL28       0.1805
    510 H           7.7494    6.0585    5.9273 H      28  UNL28       0.0806
    511 CL          8.8442    7.5260   10.8867 Cl     28  UNL28      -0.0870
    512 CL          8.3804    4.6960   11.3965 Cl     28  UNL28      -0.0870
    513 CL          6.1260    6.5314   11.2127 Cl     28  UNL28      -0.0870
    514 C           7.7521    6.1574   10.6167 C.3    28  UNL28       0.1805
    515 H           7.6903    5.9738    9.5410 H      28  UNL28       0.0806
    516 CL          8.8443    7.4167   14.8854 Cl     28  UNL28      -0.0870
    517 CL          8.3321    4.5614   14.6219 Cl     28  UNL28      -0.0870
    518 CL          6.1049    6.4299   14.8051 Cl     28  UNL28      -0.0870
    519 C           7.7582    6.1876   14.2157 C.3    28  UNL28       0.1805
    520 H           7.7536    6.2889   13.1274 H      28  UNL28       0.0806
    521 CL          8.8444    7.5214   18.1216 Cl     28  UNL28      -0.0870
    522 CL          8.3593    4.6901   18.6036 Cl     28  UNL28      -0.0870
    523 CL          6.1160    6.5341   18.3759 Cl     28  UNL28      -0.0870
    524 C           7.7548    6.1580   17.8172 C.3    28  UNL28       0.1805
    525 H           7.7185    5.9809   16.7393 H      28  UNL28       0.0806
    526 CL          8.8448    7.4234   22.0698 Cl     28  UNL28      -0.0870
    527 CL          8.3265    4.5653   21.8535 Cl     28  UNL28      -0.0870
    528 CL          6.1033    6.4422   21.9934 Cl     28  UNL28      -0.0870
    529 C           7.7587    6.1856   21.4164 C.3    28  UNL28       0.1805
    530 H           7.7597    6.2680   20.3265 H      28  UNL28       0.0806
    531 CL          8.8442    7.4842   25.5003 Cl     28  UNL28      -0.0870
    532 CL          8.3384    4.6192   25.6427 Cl     28  UNL28      -0.0870
    533 CL          6.1072    6.4906   25.5771 Cl     28  UNL28      -0.0870
    534 C           7.7574    6.1713   25.0166 C.3    28  UNL28       0.1805
    535 H           7.7458    6.1192   23.9249 H      28  UNL28       0.0806
    536 CL          6.2485    6.8309   28.8474 Cl     28  UNL28      -0.0870
    537 CL          9.1261    6.8922   29.2941 Cl     28  UNL28      -0.0870
    538 CL          7.6962    4.3553   29.3571 Cl     28  UNL28      -0.0870
    539 C           7.7766    5.9640   28.6190 C.3    28  UNL28       0.1805
    540 H           7.9456    5.8420   27.5460 H      28  UNL28       0.0806
    541 CL          6.2466    6.7753   32.6483 Cl     28  UNL28      -0.0870
    542 CL          9.1524    6.9031   32.8050 Cl     28  UNL28      -0.0870
    543 CL          7.8025    4.3226   32.8668 Cl     28  UNL28      -0.0870
    544 C           7.7652    5.9708   32.2176 C.3    28  UNL28       0.1805
    545 H           7.8264    5.9126   31.1278 H      28  UNL28       0.0806
    546 CL          6.2809    6.8927   35.9582 Cl     28  UNL28      -0.0870
    547 CL          9.1312    6.8439   36.5559 Cl     28  UNL28      -0.0870
    548 CL          7.5970    4.3678   36.5723 Cl     28  UNL28      -0.0870
    549 C           7.7820    5.9618   35.8210 C.3    28  UNL28       0.1805
    550 H           8.0019    5.8184   34.7600 H      28  UNL28       0.0806
    551 CL          6.8485   12.4729    0.3692 Cl     28  UNL28      -0.0870
    552 CL          9.4447   11.1526    0.3435 Cl     28  UNL28      -0.0870
    553 CL          7.0035    9.5645    0.4003 Cl     28  UNL28      -0.0870
    554 C           7.7569   11.0570   -0.1864 C.3    28  UNL28       0.1805
    555 H           7.7396   11.0444   -1.2791 H      28  UNL28       0.0806
    556 CL          6.8549   12.4430    4.0672 Cl     28  UNL28      -0.0870
    557 CL          9.4306   11.0843    4.0063 Cl     28  UNL28      -0.0870
    558 CL          6.9657    9.5415    3.8365 Cl     28  UNL28      -0.0870
    559 C           7.7608   11.0676    3.4144 C.3    28  UNL28       0.1805
    560 H           7.7811   11.1550    2.3251 H      28  UNL28       0.0806
    561 CL          6.8604   12.4539    7.6485 Cl     28  UNL28      -0.0870
    562 CL          9.4420   11.1076    7.5627 Cl     28  UNL28      -0.0870
    563 CL          6.9829    9.5473    7.5028 Cl     28  UNL28      -0.0870
    564 C           7.7578   11.0641    7.0146 C.3    28  UNL28       0.1805
    565 H           7.7498   11.1185    5.9230 H      28  UNL28       0.0806
    566 CL          6.8559   12.4665   11.2049 Cl     28  UNL28      -0.0870
    567 CL          9.4355   11.1140   11.1869 Cl     28  UNL28      -0.0870
    568 CL          6.9743    9.5573   11.1246 Cl     28  UNL28      -0.0870
    569 C           7.7596   11.0615   10.6149 C.3    28  UNL28       0.1805
    570 H           7.7678   11.0920    9.5223 H      28  UNL28       0.0806
    571 CL          6.8074   12.4018   14.8905 Cl     28  UNL28      -0.0870
    572 CL          9.4319   11.1420   14.7960 Cl     28  UNL28      -0.0870
    573 CL          7.0256    9.5094   14.6259 Cl     28  UNL28      -0.0870
    574 C           7.7596   11.0689   14.2157 C.3    28  UNL28       0.1805
    575 H           7.7685   11.1692   13.1274 H      28  UNL28       0.0806
    576 CL          6.8640   12.4752   18.3952 Cl     28  UNL28      -0.0870
    577 CL          9.4350   11.1062   18.3902 Cl     28  UNL28      -0.0870
    578 CL          6.9641    9.5648   18.3335 Cl     28  UNL28      -0.0870
    579 C           7.7598   11.0608   17.8157 C.3    28  UNL28       0.1805
    580 H           7.7701   11.0843   16.7230 H      28  UNL28       0.0806
    581 CL          6.7900   12.4103   22.0385 Cl     28  UNL28      -0.0870
    582 CL          9.4295   11.1793   21.9972 Cl     28  UNL28      -0.0870
    583 CL          7.0432    9.5128   21.8827 Cl     28  UNL28      -0.0870
    584 C           7.7598   11.0646   21.4162 C.3    28  UNL28       0.1805
    585 H           7.7705   11.1243   20.3249 H      28  UNL28       0.0806
    586 CL          6.8653   12.4434   25.6858 Cl     28  UNL28      -0.0870
    587 CL          9.4187   11.0424   25.6488 Cl     28  UNL28      -0.0870
    588 CL          6.9333    9.5477   25.3782 Cl     28  UNL28      -0.0870
    589 C           7.7638   11.0706   25.0172 C.3    28  UNL28       0.1805
    590 H           7.8119   11.1871   23.9315 H      28  UNL28       0.0806
    591 CL          9.3739   11.5758   29.1146 Cl     28  UNL28      -0.0870
    592 CL          7.4127    9.4247   29.2175 Cl     28  UNL28      -0.0870
    593 CL          6.5300   12.2005   29.1899 Cl     28  UNL28      -0.0870
    594 C           7.7550   11.0559   28.6169 C.3    28  UNL28       0.1805
    595 H           7.7214   11.0344   27.5246 H      28  UNL28       0.0806
    596 CL          9.3372   11.6153   32.8030 Cl     28  UNL28      -0.0870
    597 CL          7.4652    9.3858   32.7072 Cl     28  UNL28      -0.0870
    598 CL          6.4686   12.1209   32.8128 Cl     28  UNL28      -0.0870
    599 C           7.7590   11.0628   32.2173 C.3    28  UNL28       0.1805
    600 H           7.7630   11.1065   31.1252 H      28  UNL28       0.0806
    601 CL          9.3508   11.6517   36.3018 Cl     28  UNL28      -0.0870
    602 CL          7.4914    9.4134   36.4295 Cl     28  UNL28      -0.0870
    603 CL          6.4816   12.1454   36.3927 Cl     28  UNL28      -0.0870
    604 C           7.7544   11.0551   35.8177 C.3    28  UNL28       0.1805
    605 H           7.7148   11.0258   34.7259 H      28  UNL28       0.0806
    606 CL          8.8439   17.2353    2.3374 Cl     28  UNL28      -0.0870
    607 CL          8.3548   14.3640    2.3595 Cl     28  UNL28      -0.0870
    608 CL          6.1136   16.2236    2.4158 Cl     28  UNL28      -0.0870
    609 C           7.7555   15.9392    1.8137 C.3    28  UNL28       0.1805
    610 H           7.7253   15.9360    0.7211 H      28  UNL28       0.0806
    611 CL          8.8442   17.2171    5.9908 Cl     28  UNL28      -0.0870
    612 CL          8.3275   14.3508    5.9485 Cl     28  UNL28      -0.0870
    613 CL          6.1033   16.2315    5.9750 Cl     28  UNL28      -0.0870
    614 C           7.7587   15.9413    5.4140 C.3    28  UNL28       0.1805
    615 H           7.7593   15.9574    4.3212 H      28  UNL28       0.0806
    616 CL          8.8376   17.2551    9.4886 Cl     28  UNL28      -0.0870
    617 CL          8.3781   14.3805    9.5868 Cl     28  UNL28      -0.0870
    618 CL          6.1194   16.2191    9.6385 Cl     28  UNL28      -0.0870
    619 C           7.7535   15.9364    9.0146 C.3    28  UNL28       0.1805
    620 H           7.7045   15.9070    7.9231 H      28  UNL28       0.0806
    621 CL          8.8450   17.2171   13.1897 Cl     28  UNL28      -0.0870
    622 CL          8.3021   14.3554   13.1976 Cl     28  UNL28      -0.0870
    623 CL          6.0960   16.2563   13.1291 Cl     28  UNL28      -0.0870
    624 C           7.7615   15.9387   12.6149 C.3    28  UNL28       0.1805
    625 H           7.7884   15.9307   11.5222 H      28  UNL28       0.0806
    626 CL          8.8450   17.2208   16.7796 Cl     28  UNL28      -0.0870
    627 CL          8.3572   14.3502   16.7034 Cl     28  UNL28      -0.0870
    628 CL          6.1154   16.2056   16.8337 Cl     28  UNL28      -0.0870
    629 C           7.7550   15.9433   16.2153 C.3    28  UNL28       0.1805
    630 H           7.7204   15.9782   15.1234 H      28  UNL28       0.0806
    631 CL          8.8448   17.2262   20.3649 Cl     28  UNL28      -0.0870
    632 CL          8.3080   14.3638   20.4196 Cl     28  UNL28      -0.0870
    633 CL          6.0975   16.2589   20.3342 Cl     28  UNL28      -0.0870
    634 C           7.7609   15.9369   19.8157 C.3    28  UNL28       0.1805
    635 H           7.7818   15.9122   18.7232 H      28  UNL28       0.0806
    636 CL          8.8443   17.2137   24.0020 Cl     28  UNL28      -0.0870
    637 CL          8.3438   14.3458   23.9068 Cl     28  UNL28      -0.0870
    638 CL          6.1093   16.2116   24.0106 Cl     28  UNL28      -0.0870
    639 C           7.7568   15.9437   23.4161 C.3    28  UNL28       0.1805
    640 H           7.7389   15.9832   22.3240 H      28  UNL28       0.0806
    641 CL          8.8442   17.2475   27.4982 Cl     28  UNL28      -0.0870
    642 CL          8.3187   14.3885   27.6831 Cl     28  UNL28      -0.0870
    643 CL          6.1004   16.2707   27.5374 Cl     28  UNL28      -0.0870
    644 C           7.7597   15.9319   27.0167 C.3    28  UNL28       0.1805
    645 H           7.7699   15.8595   25.9261 H      28  UNL28       0.0806
    646 CL          9.0083   17.0613   31.1831 Cl     28  UNL28      -0.0870
    647 CL          8.1141   14.2894   31.1494 Cl     28  UNL28      -0.0870
    648 CL          6.1605   16.4497   31.1901 Cl     28  UNL28      -0.0870
    649 C           7.7580   15.9412   30.6168 C.3    28  UNL28       0.1805
    650 H           7.7521   15.9565   29.5240 H      28  UNL28       0.0806
    651 CL          8.8596   17.2007   34.8024 Cl     28  UNL28      -0.0870
    652 CL          8.2592   14.3507   34.8309 Cl     28  UNL28      -0.0870
    653 CL          6.0939   16.2939   34.6890 Cl     28  UNL28      -0.0870
    654 C           7.7642   15.9372   34.2174 C.3    28  UNL28       0.1805
    655 H           7.8161   15.9155   33.1258 H      28  UNL28       0.0806
    656 CL          8.8740   17.1891   38.4001 Cl     28  UNL28      -0.0870
    657 CL          8.2991   14.3345   38.3268 Cl     28  UNL28      -0.0870
    658 CL          6.1137   16.2591   38.3979 Cl     28  UNL28      -0.0870
    659 C           7.7577   15.9427   37.8177 C.3    28  UNL28       0.1805
    660 H           7.7485   15.9727   36.7251 H      28  UNL28       0.0806
    661 CL          6.3352   21.8045    0.2838 Cl     28  UNL28      -0.0870
    662 CL          9.1637   21.1156    0.3791 Cl     28  UNL28      -0.0870
    663 CL          7.1493   19.0127    0.4483 Cl     28  UNL28      -0.0870
    664 C           7.5611   20.6149   -0.1862 C.3    28  UNL28       0.1805
    665 H           7.5837   20.5573   -1.2774 H      28  UNL28       0.0806
    666 CL          6.2563   21.6971    3.9409 Cl     28  UNL28      -0.0870
    667 CL          9.1275   21.2097    3.9936 Cl     28  UNL28      -0.0870
    668 CL          7.2694   18.9665    3.9797 Cl     28  UNL28      -0.0870
    669 C           7.5606   20.6201    3.4140 C.3    28  UNL28       0.1805
    670 H           7.5792   20.6115    2.3212 H      28  UNL28       0.0806
    671 CL          6.2232   21.6968    7.4174 Cl     28  UNL28      -0.0870
    672 CL          9.0977   21.2690    7.6145 Cl     28  UNL28      -0.0870
    673 CL          7.2790   18.9946    7.6781 Cl     28  UNL28      -0.0870
    674 C           7.5653   20.6125    7.0149 C.3    28  UNL28       0.1805
    675 H           7.6279   20.5320    5.9267 H      28  UNL28       0.0806
    676 CL          6.2756   21.6971   11.1983 Cl     28  UNL28      -0.0870
    677 CL          9.1428   21.1847   11.1731 Cl     28  UNL28      -0.0870
    678 CL          7.2650   18.9581   11.1452 Cl     28  UNL28      -0.0870
    679 C           7.5580   20.6230   10.6148 C.3    28  UNL28       0.1805
    680 H           7.5517   20.6420    9.5220 H      28  UNL28       0.0806
    681 CL          6.2528   21.6971   14.7308 Cl     28  UNL28      -0.0870
    682 CL          9.1227   21.2064   14.8149 Cl     28  UNL28      -0.0870
    683 CL          7.2625   18.9653   14.7718 Cl     28  UNL28      -0.0870
    684 C           7.5620   20.6205   14.2153 C.3    28  UNL28       0.1805
    685 H           7.5931   20.6157   13.1227 H      28  UNL28       0.0806
    686 CL          6.3152   21.7924   18.2552 Cl     28  UNL28      -0.0870
    687 CL          9.1473   21.1318   18.4194 Cl     28  UNL28      -0.0870
    688 CL          7.1530   19.0089   18.4414 Cl     28  UNL28      -0.0870
    689 C           7.5639   20.6149   17.8159 C.3    28  UNL28       0.1805
    690 H           7.6135   20.5569   16.7256 H      28  UNL28       0.0806
    691 CL          6.3404   21.7657   22.0101 Cl     28  UNL28      -0.0870
    692 CL          9.1793   21.1207   21.9149 Cl     28  UNL28      -0.0870
    693 CL          7.2020   18.9833   21.9947 Cl     28  UNL28      -0.0870
    694 C           7.5546   20.6204   21.4161 C.3    28  UNL28       0.1805
    695 H           7.5166   20.6147   20.3238 H      28  UNL28       0.0806
    696 CL          6.3669   21.8068   25.5757 Cl     28  UNL28      -0.0870
    697 CL          9.1839   21.0660   25.5608 Cl     28  UNL28      -0.0870
    698 CL          7.1338   18.9969   25.5852 Cl     28  UNL28      -0.0870
    699 C           7.5579   20.6204   25.0164 C.3    28  UNL28       0.1805
    700 H           7.5505   20.6147   23.9235 H      28  UNL28       0.0806
    701 CL          6.2530   21.6971   29.1332 Cl     28  UNL28      -0.0870
    702 CL          9.1237   21.2097   29.2091 Cl     28  UNL28      -0.0870
    703 CL          7.2658   18.9665   29.1802 Cl     28  UNL28      -0.0870
    704 C           7.5616   20.6201   28.6169 C.3    28  UNL28       0.1805
    705 H           7.5889   20.6115   27.5242 H      28  UNL28       0.0806
    706 CL          6.2913   21.7082   32.8176 Cl     28  UNL28      -0.0870
    707 CL          9.1565   21.1962   32.7058 Cl     28  UNL28      -0.0870
    708 CL          7.2815   18.9690   32.7995 Cl     28  UNL28      -0.0870
    709 C           7.5540   20.6201   32.2173 C.3    28  UNL28       0.1805
    710 H           7.5098   20.6113   31.1252 H      28  UNL28       0.0806
    711 CL          6.2505   21.6971   36.3257 Cl     28  UNL28      -0.0870
    712 CL          9.1199   21.2064   36.4263 Cl     28  UNL28      -0.0870
    713 CL          7.2600   18.9652   36.3725 Cl     28  UNL28      -0.0870
    714 C           7.5626   20.6205   35.8177 C.3    28  UNL28       0.1805
    715 H           7.6000   20.6157   34.7253 H      28  UNL28       0.0806
    716 CL          8.8445   26.9824    0.3825 Cl     28  UNL28      -0.0870
    717 CL          8.3035   24.1204    0.4025 Cl     28  UNL28      -0.0870
    718 CL          6.0961   26.0195    0.3279 Cl     28  UNL28      -0.0870
    719 C           7.7614   25.7009   -0.1863 C.3    28  UNL28       0.1805
    720 H           7.7876   25.6885   -1.2790 H      28  UNL28       0.0806
    721 CL          8.8440   27.0109    3.8936 Cl     28  UNL28      -0.0870
    722 CL          8.3577   24.1413    4.0067 Cl     28  UNL28      -0.0870
    723 CL          6.1149   26.0000    4.0127 Cl     28  UNL28      -0.0870
    724 C           7.7551   25.6983    3.4141 C.3    28  UNL28       0.1805
    725 H           7.7213   25.6611    2.3223 H      28  UNL28       0.0806
    726 CL          8.8443   26.9737    7.6075 Cl     28  UNL28      -0.0870
    727 CL          8.2922   24.1138    7.5940 Cl     28  UNL28      -0.0870
    728 CL          6.0930   26.0222    7.5133 Cl     28  UNL28      -0.0870
    729 C           7.7627   25.7020    7.0145 C.3    28  UNL28       0.1805
    730 H           7.8009   25.6999    5.9222 H      28  UNL28       0.0806
    731 CL          8.8444   27.0138   11.0830 Cl     28  UNL28      -0.0870
    732 CL          8.3581   24.1452   11.2195 Cl     28  UNL28      -0.0870
    733 CL          6.1154   26.0039   11.2125 Cl     28  UNL28      -0.0870
    734 C           7.7550   25.6974   10.6150 C.3    28  UNL28       0.1805
    735 H           7.7202   25.6514    9.5235 H      28  UNL28       0.0806
    736 CL          8.8447   26.9735   14.8080 Cl     28  UNL28      -0.0870
    737 CL          8.3166   24.1096   14.7495 Cl     28  UNL28      -0.0870
    738 CL          6.1000   25.9995   14.7603 Cl     28  UNL28      -0.0870
    739 C           7.7599   25.7044   14.2152 C.3    28  UNL28       0.1805
    740 H           7.7718   25.7246   13.1225 H      28  UNL28       0.0806
    741 CL          8.8418   27.0085   18.3104 Cl     28  UNL28      -0.0870
    742 CL          8.3345   24.1433   18.4423 Cl     28  UNL28      -0.0870
    743 CL          6.1041   26.0153   18.3652 Cl     28  UNL28      -0.0870
    744 C           7.7582   25.6970   17.8158 C.3    28  UNL28       0.1805
    745 H           7.7544   25.6475   16.7239 H      28  UNL28       0.0806
    746 CL          8.8321   26.9572   22.0759 Cl     28  UNL28      -0.0870
    747 CL          8.3263   24.0956   21.8769 Cl     28  UNL28      -0.0870
    748 CL          6.0953   25.9663   21.9645 Cl     28  UNL28      -0.0870
    749 C           7.7606   25.7100   21.4163 C.3    28  UNL28       0.1805
    750 H           7.7787   25.7827   20.3259 H      28  UNL28       0.0806
    751 CL          8.8439   27.0116   25.4941 Cl     28  UNL28      -0.0870
    752 CL          8.3429   24.1461   25.6419 Cl     28  UNL28      -0.0870
    753 CL          6.1087   26.0142   25.5840 Cl     28  UNL28      -0.0870
    754 C           7.7569   25.6966   25.0166 C.3    28  UNL28       0.1805
    755 H           7.7405   25.6433   23.9250 H      28  UNL28       0.0806
    756 CL          8.8400   26.9504   29.2765 Cl     28  UNL28      -0.0870
    757 CL          8.3225   24.0918   29.0661 Cl     28  UNL28      -0.0870
    758 CL          6.0990   25.9702   29.1768 Cl     28  UNL28      -0.0870
    759 C           7.7599   25.7106   28.6171 C.3    28  UNL28       0.1805
    760 H           7.7716   25.7887   27.5270 H      28  UNL28       0.0806
    761 CL          8.8441   27.0126   32.6907 Cl     28  UNL28      -0.0870
    762 CL          8.3509   24.1454   32.8312 Cl     28  UNL28      -0.0870
    763 CL          6.1121   26.0085   32.8005 Cl     28  UNL28      -0.0870
    764 C           7.7559   25.6971   32.2174 C.3    28  UNL28       0.1805
    765 H           7.7300   25.6481   31.1258 H      28  UNL28       0.0806
    766 CL          8.8445   26.9403   36.4913 Cl     28  UNL28      -0.0870
    767 CL          8.3044   24.0865   36.2717 Cl     28  UNL28      -0.0870
    768 CL          6.0963   25.9843   36.3585 Cl     28  UNL28      -0.0870
    769 C           7.7613   25.7107   35.8180 C.3    28  UNL28       0.1805
    770 H           7.7865   25.7899   34.7281 H      28  UNL28       0.0806
    771 CL          6.5156   31.4173    0.8143 Cl     28  UNL28      -0.0870
    772 CL          9.2392   30.3849    0.8191 Cl     28  UNL28      -0.0870
    773 CL          7.2090   29.1304   -0.8511 Cl     28  UNL28      -0.0870
    774 C           7.7860   30.6553   -0.1574 C.3    28  UNL28       0.1805
    775 H           8.0433   31.3306   -0.9774 H      28  UNL28       0.0806
    776 CL          6.4961   31.3830    4.4188 Cl     28  UNL28      -0.0870
    777 CL          9.2392   30.4035    4.4234 Cl     28  UNL28      -0.0870
    778 CL          7.2404   29.1290    2.7307 Cl     28  UNL28      -0.0870
    779 C           7.7849   30.6568    3.4439 C.3    28  UNL28       0.1805
    780 H           8.0323   31.3462    2.6326 H      28  UNL28       0.0806
    781 CL          6.4399   31.2392    8.0546 Cl     28  UNL28      -0.0870
    782 CL          9.2562   30.4974    8.0094 Cl     28  UNL28      -0.0870
    783 CL          7.3595   29.1207    6.2796 Cl     28  UNL28      -0.0870
    784 C           7.7779   30.6619    7.0470 C.3    28  UNL28       0.1805
    785 H           7.9595   31.3993    6.2610 H      28  UNL28       0.0806
    786 CL          6.4846   31.3479   11.6339 Cl     28  UNL28      -0.0870
    787 CL          9.2483   30.4284   11.6137 Cl     28  UNL28      -0.0870
    788 CL          7.2672   29.1247    9.9225 Cl     28  UNL28      -0.0870
    789 C           7.7828   30.6581   10.6452 C.3    28  UNL28       0.1805
    790 H           8.0101   31.3593    9.8382 H      28  UNL28       0.0806
    791 CL          6.5151   31.4081   15.2239 Cl     28  UNL28      -0.0870
    792 CL          9.2540   30.4172   15.2023 Cl     28  UNL28      -0.0870
    793 CL          7.2208   29.1138   13.5739 Cl     28  UNL28      -0.0870
    794 C           7.7837   30.6548   14.2431 C.3    28  UNL28       0.1805
    795 H           8.0194   31.3248   13.4123 H      28  UNL28       0.0806
    796 CL          6.5245   31.4276   18.8191 Cl     28  UNL28      -0.0870
    797 CL          9.2294   30.3469   18.8281 Cl     28  UNL28      -0.0870
    798 CL          7.1887   29.1508   17.1282 Cl     28  UNL28      -0.0870
    799 C           7.7878   30.6559   17.8457 C.3    28  UNL28       0.1805
    800 H           8.0626   31.3372   17.0364 H      28  UNL28       0.0806
    801 CL          6.5146   31.4161   22.4165 Cl     28  UNL28      -0.0870
    802 CL          9.2488   30.4118   22.4111 Cl     28  UNL28      -0.0870
    803 CL          7.2174   29.1147   20.7752 Cl     28  UNL28      -0.0870
    804 C           7.7845   30.6544   21.4438 C.3    28  UNL28       0.1805
    805 H           8.0277   31.3214   20.6128 H      28  UNL28       0.0806
    806 CL          6.6052   31.5337   26.0212 Cl     28  UNL28      -0.0870
    807 CL          9.2951   30.4201   25.9294 Cl     28  UNL28      -0.0870
    808 CL          7.1169   29.0834   24.5319 Cl     28  UNL28      -0.0870
    809 C           7.7813   30.6462   25.0374 C.3    28  UNL28       0.1805
    810 H           7.9945   31.2352   24.1417 H      28  UNL28       0.0806
    811 CL          6.8714   32.0722   28.8751 Cl     28  UNL28      -0.0870
    812 CL          9.4404   30.7271   29.1501 Cl     28  UNL28      -0.0870
    813 CL          6.9669   29.2224   29.4697 Cl     28  UNL28      -0.0870
    814 C           7.7584   30.5600   28.6193 C.3    28  UNL28       0.1805
    815 H           7.7559   30.3368   27.5493 H      28  UNL28       0.0806
    816 CL          6.8173   31.9398   32.8789 Cl     28  UNL28      -0.0870
    817 CL          9.3997   30.5928   32.9073 Cl     28  UNL28      -0.0870
    818 CL          6.9576   29.0522   32.5235 Cl     28  UNL28      -0.0870
    819 C           7.7675   30.5983   32.2185 C.3    28  UNL28       0.1805
    820 H           7.8509   30.7354   31.1373 H      28  UNL28       0.0806
    821 CL          6.8794   32.0416   36.2862 Cl     28  UNL28      -0.0870
    822 CL          9.4239   30.6314   36.4312 Cl     28  UNL28      -0.0870
    823 CL          6.9268   29.1317   36.4060 Cl     28  UNL28      -0.0870
    824 C           7.7627   30.5790   35.8178 C.3    28  UNL28       0.1805
    825 H           7.8002   30.5348   34.7263 H      28  UNL28       0.0806
    826 CL         14.2915   -0.7492    2.5169 Cl     28  UNL28      -0.0870
    827 CL         12.9279   -3.3032    2.1976 Cl     28  UNL28      -0.0870
    828 CL         11.3829   -0.8414    2.3907 Cl     28  UNL28      -0.0870
    829 C          12.8897   -1.5740    1.8143 C.3    28  UNL28       0.1805
    830 H          12.9334   -1.4613    0.7280 H      28  UNL28       0.0806
    831 CL         14.2326   -0.5023    5.7122 Cl     28  UNL28      -0.0870
    832 CL         13.1241   -3.1348    6.2827 Cl     28  UNL28      -0.0870
    833 CL         11.3475   -0.8596    5.8928 Cl     28  UNL28      -0.0870
    834 C          12.8808   -1.6087    5.4164 C.3    28  UNL28       0.1805
    835 H          12.8405   -1.8237    4.3455 H      28  UNL28       0.0806
    836 CL         14.2417   -0.6512    9.6862 Cl     28  UNL28      -0.0870
    837 CL         13.1051   -3.3033    9.2880 Cl     28  UNL28      -0.0870
    838 CL         11.3524   -1.0178    9.7232 Cl     28  UNL28      -0.0870
    839 C          12.8813   -1.5671    9.0160 C.3    28  UNL28       0.1805
    840 H          12.8450   -1.3896    7.9381 H      28  UNL28       0.0806
    841 CL         14.2568   -0.5453   12.9732 Cl     28  UNL28      -0.0870
    842 CL         13.0137   -3.1168   13.5447 Cl     28  UNL28      -0.0870
    843 CL         11.3547   -0.7941   12.9639 Cl     28  UNL28      -0.0870
    844 C          12.8877   -1.6122   12.6179 C.3    28  UNL28       0.1805
    845 H          12.9125   -1.8606   11.5538 H      28  UNL28       0.0806
    846 CL         13.7898   -0.2094   16.8879 Cl     28  UNL28      -0.0870
    847 CL         13.7078   -3.1016   16.5517 Cl     28  UNL28      -0.0870
    848 CL         11.2311   -1.6012   16.8674 Cl     28  UNL28      -0.0870
    849 C          12.8787   -1.5723   16.2162 C.3    28  UNL28       0.1805
    850 H          12.8179   -1.4446   15.1324 H      28  UNL28       0.0806
    851 CL         14.1867   -0.4834   20.2682 Cl     28  UNL28      -0.0870
    852 CL         13.0369   -3.1177   20.7398 Cl     28  UNL28      -0.0870
    853 CL         11.3064   -0.8712   20.0741 Cl     28  UNL28      -0.0870
    854 C          12.8961   -1.6108   19.8189 C.3    28  UNL28       0.1805
    855 H          12.9994   -1.8460   18.7565 H      28  UNL28       0.0806
    856 CL         13.5981   -0.1079   24.1065 Cl     28  UNL28      -0.0870
    857 CL         13.8717   -2.9917   23.8022 Cl     28  UNL28      -0.0870
    858 CL         11.2246   -1.7931   24.0043 Cl     28  UNL28      -0.0870
    859 C          12.8817   -1.5740   23.4167 C.3    28  UNL28       0.1805
    860 H          12.8493   -1.4624   22.3299 H      28  UNL28       0.0806
    861 CL         14.1882   -0.4733   27.4276 Cl     28  UNL28      -0.0870
    862 CL         13.1317   -3.1570   27.8349 Cl     28  UNL28      -0.0870
    863 CL         11.3097   -0.9185   27.4424 Cl     28  UNL28      -0.0870
    864 C          12.8874   -1.6041   27.0179 C.3    28  UNL28       0.1805
    865 H          12.9085   -1.7761   25.9387 H      28  UNL28       0.0806
    866 CL         13.6962   -0.0920   31.0983 Cl     28  UNL28      -0.0870
    867 CL         13.7313   -2.9981   31.2916 Cl     28  UNL28      -0.0870
    868 CL         11.1922   -1.5798   31.1296 Cl     28  UNL28      -0.0870
    869 C          12.8882   -1.5935   30.6171 C.3    28  UNL28       0.1805
    870 H          12.9175   -1.6656   29.5269 H      28  UNL28       0.0806
    871 CL         14.1566   -0.5820   34.9644 Cl     28  UNL28      -0.0870
    872 CL         13.2250   -3.2885   34.4250 Cl     28  UNL28      -0.0870
    873 CL         11.3013   -1.1549   34.9070 Cl     28  UNL28      -0.0870
    874 C          12.8827   -1.5624   34.2196 C.3    28  UNL28       0.1805
    875 H          12.8598   -1.3412   33.1495 H      28  UNL28       0.0806
    876 CL         14.1379   -0.3821   38.0004 Cl     28  UNL28      -0.0870
    877 CL         13.2882   -3.0638   38.7558 Cl     28  UNL28      -0.0870
    878 CL         11.3045   -0.9751   38.3234 Cl     28  UNL28      -0.0870
    879 C          12.8785   -1.6153   37.8216 C.3    28  UNL28       0.1805
    880 H          12.8163   -1.8928   36.7663 H      28  UNL28       0.0806
    881 CL         12.8090    1.6583    2.5097 Cl     28  UNL28      -0.0870
    882 CL         11.5145    4.2645    2.3830 Cl     28  UNL28      -0.0870
    883 CL         14.4159    4.0696    2.2137 Cl     28  UNL28      -0.0870
    884 C          12.8777    3.2863    1.8142 C.3    28  UNL28       0.1805
    885 H          12.8084    3.1990    0.7269 H      28  UNL28       0.0806
    886 CL         12.5365    1.6000    5.6928 Cl     28  UNL28      -0.0870
    887 CL         11.6425    4.3312    6.1675 Cl     28  UNL28      -0.0870
    888 CL         14.4902    3.7330    6.0353 Cl     28  UNL28      -0.0870
    889 C          12.8838    3.3150    5.4157 C.3    28  UNL28       0.1805
    890 H          12.8724    3.4984    4.3382 H      28  UNL28       0.0806
    891 CL         12.6575    1.6946    9.7691 Cl     28  UNL28      -0.0870
    892 CL         11.6092    4.4027    9.5419 Cl     28  UNL28      -0.0870
    893 CL         14.4804    3.9351    9.3934 Cl     28  UNL28      -0.0870
    894 C          12.8770    3.2828    9.0154 C.3    28  UNL28       0.1805
    895 H          12.8014    3.1625    7.9317 H      28  UNL28       0.0806
    896 CL         12.6680    1.5717   12.7942 Cl     28  UNL28      -0.0870
    897 CL         11.5079    4.1968   13.2914 Cl     28  UNL28      -0.0870
    898 CL         14.3965    3.8369   13.3984 Cl     28  UNL28      -0.0870
    899 C          12.8923    3.3202   12.6177 C.3    28  UNL28       0.1805
    900 H          12.9607    3.5522   11.5518 H      28  UNL28       0.0806
    901 CL         12.2638    1.7537   17.0153 Cl     28  UNL28      -0.0870
    902 CL         11.4476    4.5038   16.5101 Cl     28  UNL28      -0.0870
    903 CL         14.2736    3.8479   16.7726 Cl     28  UNL28      -0.0870
    904 C          12.6912    3.2764   16.2170 C.3    28  UNL28       0.1805
    905 H          12.7493    3.0959   15.1406 H      28  UNL28       0.0806
    906 CL         12.5024    1.5675   19.9888 Cl     28  UNL28      -0.0870
    907 CL         11.3392    4.1656   20.6059 Cl     28  UNL28      -0.0870
    908 CL         14.2333    3.8558   20.4906 Cl     28  UNL28      -0.0870
    909 C          12.6833    3.3216   19.8186 C.3    28  UNL28       0.1805
    910 H          12.6672    3.5672   18.7537 H      28  UNL28       0.0806
    911 CL         11.9029    1.9578   24.3202 Cl     28  UNL28      -0.0870
    912 CL         11.6834    4.7097   23.3914 Cl     28  UNL28      -0.0870
    913 CL         14.2836    3.6253   24.1314 Cl     28  UNL28      -0.0870
    914 C          12.7012    3.2601   23.4228 C.3    28  UNL28       0.1805
    915 H          12.8543    2.9249   22.3938 H      28  UNL28       0.0806
    916 CL         12.4389    1.5745   27.1541 Cl     28  UNL28      -0.0870
    917 CL         11.4031    4.1968   27.8856 Cl     28  UNL28      -0.0870
    918 CL         14.2758    3.7827   27.6381 Cl     28  UNL28      -0.0870
    919 C          12.6796    3.3247   27.0203 C.3    28  UNL28       0.1805
    920 H          12.6281    3.5990   25.9635 H      28  UNL28       0.0806
    921 CL         12.0439    1.8314   31.4170 Cl     28  UNL28      -0.0870
    922 CL         11.5438    4.6065   30.6867 Cl     28  UNL28      -0.0870
    923 CL         14.2414    3.7426   31.3662 Cl     28  UNL28      -0.0870
    924 C          12.7048    3.2699   30.6214 C.3    28  UNL28       0.1805
    925 H          12.8915    3.0273   29.5722 H      28  UNL28       0.0806
    926 CL         12.4207    1.5774   34.3652 Cl     28  UNL28      -0.0870
    927 CL         11.4030    4.2160   35.0625 Cl     28  UNL28      -0.0870
    928 CL         14.2741    3.7702   34.8556 Cl     28  UNL28      -0.0870
    929 C          12.6813    3.3238   34.2208 C.3    28  UNL28       0.1805
    930 H          12.6464    3.5903   33.1613 H      28  UNL28       0.0806
    931 CL         12.3765    1.7222   38.6061 Cl     28  UNL28      -0.0870
    932 CL         11.4376    4.4590   38.2701 Cl     28  UNL28      -0.0870
    933 CL         14.2930    3.8842   38.2360 Cl     28  UNL28      -0.0870
    934 C          12.6805    3.2799   37.8188 C.3    28  UNL28       0.1805
    935 H          12.6379    3.1324   36.7366 H      28  UNL28       0.0806
    936 CL         14.4334    9.2454    2.1808 Cl     28  UNL28      -0.0870
    937 CL         13.2876    6.6099    2.6551 Cl     28  UNL28      -0.0870
    938 CL         11.5414    8.9071    2.2570 Cl     28  UNL28      -0.0870
    939 C          13.0845    8.1566    1.8154 C.3    28  UNL28       0.1805
    940 H          13.0785    7.9656    0.7393 H      28  UNL28       0.0806
    941 CL         14.4099    9.0943    6.1827 Cl     28  UNL28      -0.0870
    942 CL         13.3144    6.4555    5.6161 Cl     28  UNL28      -0.0870
    943 CL         11.5249    8.7052    6.0866 Cl     28  UNL28      -0.0870
    944 C          13.0856    8.2009    5.4165 C.3    28  UNL28       0.1805
    945 H          13.0906    8.4285    4.3475 H      28  UNL28       0.0806
    946 CL         14.3443    9.3720    9.2257 Cl     28  UNL28      -0.0870
    947 CL         13.4766    6.6808    9.9250 Cl     28  UNL28      -0.0870
    948 CL         11.5064    8.7888    9.5260 Cl     28  UNL28      -0.0870
    949 C          13.0788    8.1496    9.0179 C.3    28  UNL28       0.1805
    950 H          13.0193    7.8933    7.9570 H      28  UNL28       0.0806
    951 CL         14.4661    9.0292   13.3546 Cl     28  UNL28      -0.0870
    952 CL         13.2033    6.4483   12.8765 Cl     28  UNL28      -0.0870
    953 CL         11.5620    8.8232   13.2654 Cl     28  UNL28      -0.0870
    954 C          13.0872    8.1969   12.6166 C.3    28  UNL28       0.1805
    955 H          13.1068    8.3868   11.5404 H      28  UNL28       0.0806
    956 CL         14.3470    9.3638   16.4782 Cl     28  UNL28      -0.0870
    957 CL         13.4364    6.6765   17.1364 Cl     28  UNL28      -0.0870
    958 CL         11.4961    8.7978   16.6671 Cl     28  UNL28      -0.0870
    959 C          13.0830    8.1500   16.2184 C.3    28  UNL28       0.1805
    960 H          13.0629    7.8965   15.1554 H      28  UNL28       0.0806
    961 CL         14.3340    8.9095   20.5535 Cl     28  UNL28      -0.0870
    962 CL         12.8859    6.4402   20.0152 Cl     28  UNL28      -0.0870
    963 CL         11.4214    8.9067   20.5218 Cl     28  UNL28      -0.0870
    964 C          12.8863    8.2008   19.8181 C.3    28  UNL28       0.1805
    965 H          12.8978    8.4273   18.7489 H      28  UNL28       0.0806
    966 CL         14.1090    9.4055   23.4076 Cl     28  UNL28      -0.0870
    967 CL         13.4012    6.7578   24.3938 Cl     28  UNL28      -0.0870
    968 CL         11.3351    8.7801   24.0387 Cl     28  UNL28      -0.0870
    969 C          12.8685    8.1407   23.4231 C.3    28  UNL28       0.1805
    970 H          12.7117    7.8003   22.3963 H      28  UNL28       0.0806
    971 CL         14.2794    8.9657   27.8081 Cl     28  UNL28      -0.0870
    972 CL         12.9540    6.4414   27.2119 Cl     28  UNL28      -0.0870
    973 CL         11.3724    8.8441   27.6709 Cl     28  UNL28      -0.0870
    974 C          12.8894    8.2013   27.0191 C.3    28  UNL28       0.1805
    975 H          12.9302    8.4321   25.9515 H      28  UNL28       0.0806
    976 CL         14.3081    9.1759   30.7304 Cl     28  UNL28      -0.0870
    977 CL         13.0921    6.6638   31.5639 Cl     28  UNL28      -0.0870
    978 CL         11.4331    9.0260   31.1732 Cl     28  UNL28      -0.0870
    979 C          12.8695    8.1475   30.6217 C.3    28  UNL28       0.1805
    980 H          12.7227    7.8712   29.5744 H      28  UNL28       0.0806
    981 CL         14.2104    9.0755   35.0106 Cl     28  UNL28      -0.0870
    982 CL         13.0948    6.4526   34.4105 Cl     28  UNL28      -0.0870
    983 CL         11.3230    8.7181   34.8718 Cl     28  UNL28      -0.0870
    984 C          12.8875    8.2017   34.2199 C.3    28  UNL28       0.1805
    985 H          12.9098    8.4365   33.1527 H      28  UNL28       0.0806
    986 CL         14.1816    9.3345   37.9779 Cl     28  UNL28      -0.0870
    987 CL         13.2577    6.6759   38.7281 Cl     28  UNL28      -0.0870
    988 CL         11.3389    8.8388   38.3746 Cl     28  UNL28      -0.0870
    989 C          12.8744    8.1490   37.8215 C.3    28  UNL28       0.1805
    990 H          12.7728    7.8863   36.7654 H      28  UNL28       0.0806
    991 CL         14.3605   13.8844    2.3338 Cl     28  UNL28      -0.0870
    992 CL         12.7488   11.4778    2.6413 Cl     28  UNL28      -0.0870
    993 CL         11.4599   14.0367    2.1162 Cl     28  UNL28      -0.0870
    994 C          12.8926   13.0386    1.8156 C.3    28  UNL28       0.1805
    995 H          12.9636   12.8538    0.7406 H      28  UNL28       0.0806
    996 CL         14.3625   13.7794    6.0956 Cl     28  UNL28      -0.0870
    997 CL         12.8739   11.3218    5.6178 Cl     28  UNL28      -0.0870
    998 CL         11.4509   13.8022    6.1726 Cl     28  UNL28      -0.0870
    999 C          12.8823   13.0819    5.4165 C.3    28  UNL28       0.1805
   1000 H          12.8558   13.3060    4.3470 H      28  UNL28       0.0806
   1001 CL         14.3830   13.8201    9.5760 Cl     28  UNL28      -0.0870
   1002 CL         12.6351   11.5102    9.8815 Cl     28  UNL28      -0.0870
   1003 CL         11.5066   14.1139    9.2239 Cl     28  UNL28      -0.0870
   1004 C          12.8965   13.0346    9.0174 C.3    28  UNL28       0.1805
   1005 H          13.0042   12.8124    7.9527 H      28  UNL28       0.0806
   1006 CL         14.3333   13.8315   13.3032 Cl     28  UNL28      -0.0870
   1007 CL         12.9562   11.3214   12.7673 Cl     28  UNL28      -0.0870
   1008 CL         11.4248   13.7147   13.4090 Cl     28  UNL28      -0.0870
   1009 C          12.8799   13.0851   12.6181 C.3    28  UNL28       0.1805
   1010 H          12.8312   13.3387   11.5560 H      28  UNL28       0.0806
   1011 CL         11.5014   14.1091   16.3946 Cl     28  UNL28      -0.0870
   1012 CL         14.3725   13.8286   16.7974 Cl     28  UNL28      -0.0870
   1013 CL         12.6280   11.5140   17.0877 Cl     28  UNL28      -0.0870
   1014 C          12.8986   13.0341   16.2186 C.3    28  UNL28       0.1805
   1015 H          13.0250   12.8056   15.1572 H      28  UNL28       0.0806
   1016 CL         14.3111   13.8437   20.5419 Cl     28  UNL28      -0.0870
   1017 CL         12.9718   11.3220   19.9658 Cl     28  UNL28      -0.0870
   1018 CL         11.4021   13.6991   20.5745 Cl     28  UNL28      -0.0870
   1019 C          12.8825   13.0853   19.8189 C.3    28  UNL28       0.1805
   1020 H          12.8579   13.3412   18.7565 H      28  UNL28       0.0806
   1021 CL         14.3695   13.8353   23.9962 Cl     28  UNL28      -0.0870
   1022 CL         12.6152   11.5329   24.3216 Cl     28  UNL28      -0.0870
   1023 CL         11.5038   14.1142   23.5556 Cl     28  UNL28      -0.0870
   1024 C          12.8997   13.0313   23.4202 C.3    28  UNL28       0.1805
   1025 H          13.0371   12.7776   22.3659 H      28  UNL28       0.0806
   1026 CL         14.3485   13.7828   27.7292 Cl     28  UNL28      -0.0870
   1027 CL         12.8866   11.3207   27.1955 Cl     28  UNL28      -0.0870
   1028 CL         11.4360   13.7817   27.7649 Cl     28  UNL28      -0.0870
   1029 C          12.8837   13.0835   27.0192 C.3    28  UNL28       0.1805
   1030 H          12.8706   13.3226   25.9528 H      28  UNL28       0.0806
   1031 CL         14.2487   14.1054   30.9912 Cl     28  UNL28      -0.0870
   1032 CL         13.0319   11.5106   31.5114 Cl     28  UNL28      -0.0870
   1033 CL         11.3490   13.8306   30.9918 Cl     28  UNL28      -0.0870
   1034 C          12.8873   13.0344   30.6193 C.3    28  UNL28       0.1805
   1035 H          12.9084   12.8102   29.5498 H      28  UNL28       0.0806
   1036 CL         14.4006   13.6905   34.9044 Cl     28  UNL28      -0.0870
   1037 CL         12.7738   11.3249   34.4126 Cl     28  UNL28      -0.0870
   1038 CL         11.4950   13.8804   34.9772 Cl     28  UNL28      -0.0870
   1039 C          12.8839   13.0826   34.2198 C.3    28  UNL28       0.1805
   1040 H          12.8722   13.3129   33.1514 H      28  UNL28       0.0806
   1041 CL         14.3959   13.7969   38.3747 Cl     28  UNL28      -0.0870
   1042 CL         12.6093   11.5186   38.6927 Cl     28  UNL28      -0.0870
   1043 CL         11.5247   14.1375   38.0221 Cl     28  UNL28      -0.0870
   1044 C          12.8961   13.0338   37.8208 C.3    28  UNL28       0.1805
   1045 H          12.9995   12.8044   36.7571 H      28  UNL28       0.0806
   1046 CL         14.3243   18.8971    2.1157 Cl     28  UNL28      -0.0870
   1047 CL         13.0119   16.3438    2.6080 Cl     28  UNL28      -0.0870
   1048 CL         11.4253   18.7751    2.3704 Cl     28  UNL28      -0.0870
   1049 C          12.8758   17.9223    1.8153 C.3    28  UNL28       0.1805
   1050 H          12.7880   17.7598    0.7380 H      28  UNL28       0.0806
   1051 CL         14.3480   18.6548    6.1392 Cl     28  UNL28      -0.0870
   1052 CL         12.8642   16.2032    5.6174 Cl     28  UNL28      -0.0870
   1053 CL         11.4355   18.6894    6.1297 Cl     28  UNL28      -0.0870
   1054 C          12.8858   17.9633    5.4165 C.3    28  UNL28       0.1805
   1055 H          12.8919   18.1873    4.3467 H      28  UNL28       0.0806
   1056 CL         14.3388   18.8892    9.2198 Cl     28  UNL28      -0.0870
   1057 CL         13.0361   16.3581    9.8368 Cl     28  UNL28      -0.0870
   1058 CL         11.4562   18.7964    9.6279 Cl     28  UNL28      -0.0870
   1059 C          12.8697   17.9199    9.0172 C.3    28  UNL28       0.1805
   1060 H          12.7246   17.7345    7.9498 H      28  UNL28       0.0806
   1061 CL         14.3608   18.6326   13.3347 Cl     28  UNL28      -0.0870
   1062 CL         12.8442   16.2030   12.8049 Cl     28  UNL28      -0.0870
   1063 CL         11.4489   18.7018   13.3470 Cl     28  UNL28      -0.0870
   1064 C          12.8852   17.9642   12.6175 C.3    28  UNL28       0.1805
   1065 H          12.8863   18.1965   11.5494 H      28  UNL28       0.0806
   1066 CL         14.3380   18.8868   16.4528 Cl     28  UNL28      -0.0870
   1067 CL         13.0172   16.3585   17.0423 Cl     28  UNL28      -0.0870
   1068 CL         11.4468   18.7994   16.7954 Cl     28  UNL28      -0.0870
   1069 C          12.8723   17.9198   16.2177 C.3    28  UNL28       0.1805
   1070 H          12.7511   17.7337   15.1475 H      28  UNL28       0.0806
   1071 CL         14.3378   18.7140   20.4909 Cl     28  UNL28      -0.0870
   1072 CL         12.9440   16.2034   20.0029 Cl     28  UNL28      -0.0870
   1073 CL         11.4284   18.6196   20.5940 Cl     28  UNL28      -0.0870
   1074 C          12.8803   17.9642   19.8184 C.3    28  UNL28       0.1805
   1075 H          12.8350   18.1969   18.7514 H      28  UNL28       0.0806
   1076 CL         14.3372   18.8835   23.6843 Cl     28  UNL28      -0.0870
   1077 CL         12.9823   16.3766   24.2874 Cl     28  UNL28      -0.0870
   1078 CL         11.4348   18.8169   23.9196 Cl     28  UNL28      -0.0870
   1079 C          12.8764   17.9170   23.4186 C.3    28  UNL28       0.1805
   1080 H          12.7947   17.7040   22.3496 H      28  UNL28       0.0806
   1081 CL         14.3196   18.7114   27.7401 Cl     28  UNL28      -0.0870
   1082 CL         12.9727   16.2031   27.1247 Cl     28  UNL28      -0.0870
   1083 CL         11.4114   18.5644   27.8116 Cl     28  UNL28      -0.0870
   1084 C          12.8809   17.9693   27.0204 C.3    28  UNL28       0.1805
   1085 H          12.8408   18.2499   25.9648 H      28  UNL28       0.0806
   1086 CL         14.3942   18.6893   31.1610 Cl     28  UNL28      -0.0870
   1087 CL         12.6261   16.3989   31.4958 Cl     28  UNL28      -0.0870
   1088 CL         11.5180   19.0095   30.8311 Cl     28  UNL28      -0.0870
   1089 C          12.8953   17.9152   30.6199 C.3    28  UNL28       0.1805
   1090 H          12.9918   17.6852   29.5557 H      28  UNL28       0.0806
   1091 CL         14.3038   18.7481   34.9302 Cl     28  UNL28      -0.0870
   1092 CL         13.0121   16.2056   34.3377 Cl     28  UNL28      -0.0870
   1093 CL         11.4000   18.5357   35.0131 Cl     28  UNL28      -0.0870
   1094 C          12.8798   17.9684   34.2210 C.3    28  UNL28       0.1805
   1095 H          12.8298   18.2403   33.1635 H      28  UNL28       0.0806
   1096 CL         14.3355   18.8942   38.0234 Cl     28  UNL28      -0.0870
   1097 CL         13.0151   16.3915   38.7142 Cl     28  UNL28      -0.0870
   1098 CL         11.4422   18.8159   38.3499 Cl     28  UNL28      -0.0870
   1099 C          12.8731   17.9148   37.8209 C.3    28  UNL28       0.1805
   1100 H          12.7596   17.6817   36.7591 H      28  UNL28       0.0806
   1101 CL         14.3151   23.7851    2.1492 Cl     28  UNL28      -0.0870
   1102 CL         12.9684   21.2597    2.6902 Cl     28  UNL28      -0.0870
   1103 CL         11.4060   23.6780    2.2477 Cl     28  UNL28      -0.0870
   1104 C          12.8821   22.7982    1.8159 C.3    28  UNL28       0.1805
   1105 H          12.8538   22.5839    0.7445 H      28  UNL28       0.0806
   1106 CL         14.3184   23.5805    6.1558 Cl     28  UNL28      -0.0870
   1107 CL         12.9169   21.0847    5.6162 Cl     28  UNL28      -0.0870
   1108 CL         11.4064   23.5251    6.1140 Cl     28  UNL28      -0.0870
   1109 C          12.8863   22.8448    5.4165 C.3    28  UNL28       0.1805
   1110 H          12.8974   23.0699    4.3470 H      28  UNL28       0.0806
   1111 CL         14.2968   23.8237    9.2871 Cl     28  UNL28      -0.0870
   1112 CL         12.9929   21.3177    9.9973 Cl     28  UNL28      -0.0870
   1113 CL         11.3897   23.6711    9.3840 Cl     28  UNL28      -0.0870
   1114 C          12.8830   22.7903    9.0186 C.3    28  UNL28       0.1805
   1115 H          12.8630   22.5021    7.9645 H      28  UNL28       0.0806
   1116 CL         14.3114   23.6122   13.3327 Cl     28  UNL28      -0.0870
   1117 CL         12.9326   21.0885   12.8702 Cl     28  UNL28      -0.0870
   1118 CL         11.4001   23.5293   13.2933 Cl     28  UNL28      -0.0870
   1119 C          12.8861   22.8413   12.6166 C.3    28  UNL28       0.1805
   1120 H          12.8952   23.0336   11.5407 H      28  UNL28       0.0806
   1121 CL         14.3244   23.7824   16.4956 Cl     28  UNL28      -0.0870
   1122 CL         12.9473   21.3124   17.1934 Cl     28  UNL28      -0.0870
   1123 CL         11.4138   23.7126   16.5832 Cl     28  UNL28      -0.0870
   1124 C          12.8825   22.7908   16.2193 C.3    28  UNL28       0.1805
   1125 H          12.8576   22.5067   15.1641 H      28  UNL28       0.0806
   1126 CL         14.4006   23.4024   20.5544 Cl     28  UNL28      -0.0870
   1127 CL         12.7048   21.0942   20.0249 Cl     28  UNL28      -0.0870
   1128 CL         11.5037   23.7027   20.5126 Cl     28  UNL28      -0.0870
   1129 C          12.8891   22.8440   19.8180 C.3    28  UNL28       0.1805
   1130 H          12.9272   23.0617   18.7476 H      28  UNL28       0.0806
   1131 CL         14.3428   23.7583   23.6718 Cl     28  UNL28      -0.0870
   1132 CL         12.9334   21.3156   24.4006 Cl     28  UNL28      -0.0870
   1133 CL         11.4329   23.7390   23.7999 Cl     28  UNL28      -0.0870
   1134 C          12.8804   22.7903   23.4203 C.3    28  UNL28       0.1805
   1135 H          12.8360   22.5018   22.3670 H      28  UNL28       0.0806
   1136 CL         14.4063   23.3956   27.7476 Cl     28  UNL28      -0.0870
   1137 CL         12.6912   21.0965   27.2409 Cl     28  UNL28      -0.0870
   1138 CL         11.5118   23.7187   27.7082 Cl     28  UNL28      -0.0870
   1139 C          12.8891   22.8430   27.0186 C.3    28  UNL28       0.1805
   1140 H          12.9270   23.0512   25.9463 H      28  UNL28       0.0806
   1141 CL         14.2684   23.8738   30.7025 Cl     28  UNL28      -0.0870
   1142 CL         13.1577   21.3294   31.5836 Cl     28  UNL28      -0.0870
   1143 CL         11.4054   23.6200   31.1746 Cl     28  UNL28      -0.0870
   1144 C          12.8697   22.7894   30.6223 C.3    28  UNL28       0.1805
   1145 H          12.7243   22.4922   29.5806 H      28  UNL28       0.0806
   1146 CL         14.3993   23.3589   34.9970 Cl     28  UNL28      -0.0870
   1147 CL         12.6618   21.0981   34.4023 Cl     28  UNL28      -0.0870
   1148 CL         11.5120   23.7290   34.8930 Cl     28  UNL28      -0.0870
   1149 C          12.8923   22.8451   34.2200 C.3    28  UNL28       0.1805
   1150 H          12.9601   23.0737   33.1533 H      28  UNL28       0.0806
   1151 CL         14.3301   23.7830   38.0308 Cl     28  UNL28      -0.0870
   1152 CL         12.9825   21.3193   38.8045 Cl     28  UNL28      -0.0870
   1153 CL         11.4256   23.7153   38.2389 Cl     28  UNL28      -0.0870
   1154 C          12.8778   22.7899   37.8221 C.3    28  UNL28       0.1805
   1155 H          12.8094   22.4974   36.7712 H      28  UNL28       0.0806
   1156 CL         11.4808   28.6649    2.2824 Cl     28  UNL28      -0.0870
   1157 CL         14.3869   28.5585    2.1158 Cl     28  UNL28      -0.0870
   1158 CL         12.8712   26.1377    2.6878 Cl     28  UNL28      -0.0870
   1159 C          12.8778   27.6802    1.8160 C.3    28  UNL28       0.1805
   1160 H          12.8087   27.4705    0.7455 H      28  UNL28       0.0806
   1161 CL         11.3988   28.4342    6.0575 Cl     28  UNL28      -0.0870
   1162 CL         14.3084   28.4491    6.1929 Cl     28  UNL28      -0.0870
   1163 CL         12.8889   25.9669    5.6376 Cl     28  UNL28      -0.0870
   1164 C          12.8903   27.7248    5.4164 C.3    28  UNL28       0.1805
   1165 H          12.9390   27.9366    4.3452 H      28  UNL28       0.0806
   1166 CL         11.5023   28.6958    9.4825 Cl     28  UNL28      -0.0870
   1167 CL         14.4066   28.5127    9.3570 Cl     28  UNL28      -0.0870
   1168 CL         12.8167   26.1233    9.8551 Cl     28  UNL28      -0.0870
   1169 C          12.8790   27.6827    9.0163 C.3    28  UNL28       0.1805
   1170 H          12.8207   27.4972    7.9407 H      28  UNL28       0.0806
   1171 CL         11.4050   28.4425   13.2642 Cl     28  UNL28      -0.0870
   1172 CL         14.3163   28.4666   13.3558 Cl     28  UNL28      -0.0870
   1173 CL         12.8948   25.9697   12.8765 Cl     28  UNL28      -0.0870
   1174 C          12.8886   27.7223   12.6166 C.3    28  UNL28       0.1805
   1175 H          12.9207   27.9105   11.5404 H      28  UNL28       0.0806
   1176 CL         11.4288   28.6129   16.6012 Cl     28  UNL28      -0.0870
   1177 CL         14.3415   28.6131   16.6001 Cl     28  UNL28      -0.0870
   1178 CL         12.8854   26.1386   17.0914 Cl     28  UNL28      -0.0870
   1179 C          12.8851   27.6799   16.2174 C.3    28  UNL28       0.1805
   1180 H          12.8846   27.4672   15.1453 H      28  UNL28       0.0806
   1181 CL         14.1477   28.6965   20.5951 Cl     28  UNL28      -0.0870
   1182 CL         13.2523   26.0029   19.9416 Cl     28  UNL28      -0.0870
   1183 CL         11.3012   28.0811   20.5409 Cl     28  UNL28      -0.0870
   1184 C          12.8811   27.7308   19.8193 C.3    28  UNL28       0.1805
   1185 H          12.8430   28.0004   18.7607 H      28  UNL28       0.0806
   1186 CL         14.2652   28.6970   23.8910 Cl     28  UNL28      -0.0870
   1187 CL         12.9447   26.1282   24.2679 Cl     28  UNL28      -0.0870
   1188 CL         11.3621   28.5155   23.7381 Cl     28  UNL28      -0.0870
   1189 C          12.8924   27.6818   23.4181 C.3    28  UNL28       0.1805
   1190 H          12.9610   27.4891   22.3444 H      28  UNL28       0.0806
   1191 CL         14.1627   28.6965   27.7665 Cl     28  UNL28      -0.0870
   1192 CL         13.2513   26.0026   27.1366 Cl     28  UNL28      -0.0870
   1193 CL         11.3153   28.0830   27.7759 Cl     28  UNL28      -0.0870
   1194 C          12.8786   27.7307   27.0201 C.3    28  UNL28       0.1805
   1195 H          12.8174   27.9988   25.9623 H      28  UNL28       0.0806
   1196 CL         14.2437   28.6968   31.1663 Cl     28  UNL28      -0.0870
   1197 CL         12.9081   26.1257   31.4654 Cl     28  UNL28      -0.0870
   1198 CL         11.3527   28.5136   30.8625 Cl     28  UNL28      -0.0870
   1199 C          12.8983   27.6822   30.6194 C.3    28  UNL28       0.1805
   1200 H          13.0227   27.4933   29.5500 H      28  UNL28       0.0806
   1201 CL         14.1624   28.6967   34.9676 Cl     28  UNL28      -0.0870
   1202 CL         13.2477   26.0019   34.3468 Cl     28  UNL28      -0.0870
   1203 CL         11.3137   28.0894   34.9688 Cl     28  UNL28      -0.0870
   1204 C          12.8791   27.7302   34.2208 C.3    28  UNL28       0.1805
   1205 H          12.8226   27.9935   33.1615 H      28  UNL28       0.0806
   1206 CL         14.2713   28.6968   38.2685 Cl     28  UNL28      -0.0870
   1207 CL         12.9352   26.1461   38.7072 Cl     28  UNL28      -0.0870
   1208 CL         11.3672   28.5297   38.1201 Cl     28  UNL28      -0.0870
   1209 C          12.8922   27.6790   37.8202 C.3    28  UNL28       0.1805
   1210 H          12.9595   27.4601   36.7515 H      28  UNL28       0.0806
   1211 CL         14.1558   33.7524    2.1354 Cl     28  UNL28      -0.0870
   1212 CL         13.1979   31.0627    2.7118 Cl     28  UNL28      -0.0870
   1213 CL         11.2946   33.2159    2.2362 Cl     28  UNL28      -0.0870
   1214 C          12.8857   32.5592    1.8163 C.3    28  UNL28       0.1805
   1215 H          12.8914   32.3283    0.7479 H      28  UNL28       0.0806
   1216 CL         14.2452   33.4635    6.1616 Cl     28  UNL28      -0.0870
   1217 CL         13.0315   30.8584    5.6878 Cl     28  UNL28      -0.0870
   1218 CL         11.3460   33.2070    6.0458 Cl     28  UNL28      -0.0870
   1219 C          12.8880   32.6031    5.4157 C.3    28  UNL28       0.1805
   1220 H          12.9148   32.7866    4.3385 H      28  UNL28       0.0806
   1221 CL         13.8094   34.0458    9.3055 Cl     28  UNL28      -0.0870
   1222 CL         13.5991   31.2048    9.9126 Cl     28  UNL28      -0.0870
   1223 CL         11.1905   32.7810    9.4663 Cl     28  UNL28      -0.0870
   1224 C          12.8900   32.5591    9.0172 C.3    28  UNL28       0.1805
   1225 H          12.9363   32.3277    7.9499 H      28  UNL28       0.0806
   1226 CL         14.3068   33.3865   13.3284 Cl     28  UNL28      -0.0870
   1227 CL         12.9457   30.8519   12.8730 Cl     28  UNL28      -0.0870
   1228 CL         11.3961   33.2819   13.2952 Cl     28  UNL28      -0.0870
   1229 C          12.8857   32.6038   12.6166 C.3    28  UNL28       0.1805
   1230 H          12.8912   32.7944   11.5403 H      28  UNL28       0.0806
   1231 CL         14.1713   33.7221   16.6002 Cl     28  UNL28      -0.0870
   1232 CL         13.0890   31.0813   17.1822 Cl     28  UNL28      -0.0870
   1233 CL         11.2958   33.2706   16.4918 Cl     28  UNL28      -0.0870
   1234 C          12.8938   32.5554   16.2191 C.3    28  UNL28       0.1805
   1235 H          12.9755   32.2891   15.1622 H      28  UNL28       0.0806
   1236 CL         11.1371   33.5265   20.4945 Cl     28  UNL28      -0.0870
   1237 CL         14.0195   33.1114   20.5562 Cl     28  UNL28      -0.0870
   1238 CL         12.2353   30.8666   20.0438 Cl     28  UNL28      -0.0870
   1239 C          12.4907   32.6053   19.8178 C.3    28  UNL28       0.1805
   1240 H          12.5428   32.8087   18.7451 H      28  UNL28       0.0806
   1241 CL         11.0997   33.5570   23.9273 Cl     28  UNL28      -0.0870
   1242 CL         13.9945   33.4415   23.6258 Cl     28  UNL28      -0.0870
   1243 CL         12.5062   31.0381   24.3281 Cl     28  UNL28      -0.0870
   1244 C          12.4724   32.5588   23.4194 C.3    28  UNL28       0.1805
   1245 H          12.3525   32.3231   22.3589 H      28  UNL28       0.0806
   1246 CL         11.1037   33.5186   27.6227 Cl     28  UNL28      -0.0870
   1247 CL         13.9899   33.1611   27.7845 Cl     28  UNL28      -0.0870
   1248 CL         12.2632   30.8668   27.2949 Cl     28  UNL28      -0.0870
   1249 C          12.4938   32.6016   27.0182 C.3    28  UNL28       0.1805
   1250 H          12.5749   32.7703   25.9413 H      28  UNL28       0.0806
   1251 CL         11.1760   33.6622   31.1150 Cl     28  UNL28      -0.0870
   1252 CL         14.0562   33.3196   30.8475 Cl     28  UNL28      -0.0870
   1253 CL         12.3748   31.0392   31.5237 Cl     28  UNL28      -0.0870
   1254 C          12.4719   32.5601   30.6200 C.3    28  UNL28       0.1805
   1255 H          12.3465   32.3374   29.5573 H      28  UNL28       0.0806
   1256 CL         11.0942   33.4767   34.8725 Cl     28  UNL28      -0.0870
   1257 CL         13.9908   33.1840   34.9621 Cl     28  UNL28      -0.0870
   1258 CL         12.3066   30.8594   34.4676 Cl     28  UNL28      -0.0870
   1259 C          12.4907   32.6040   34.2191 C.3    28  UNL28       0.1805
   1260 H          12.5431   32.7946   33.1442 H      28  UNL28       0.0806
   1261 CL         11.0493   33.5047   38.2703 Cl     28  UNL28      -0.0870
   1262 CL         13.9561   33.4982   38.0841 Cl     28  UNL28      -0.0870
   1263 CL         12.5329   31.0416   38.7353 Cl     28  UNL28      -0.0870
   1264 C          12.4779   32.5581   37.8207 C.3    28  UNL28       0.1805
   1265 H          12.4091   32.3159   36.7571 H      28  UNL28       0.0806
   1266 CL         18.2883   -0.3588    0.3874 Cl     28  UNL28      -0.0870
   1267 CL         16.4684    1.9150    0.4376 Cl     28  UNL28      -0.0870
   1268 CL         19.3440    2.3540    0.2864 Cl     28  UNL28      -0.0870
   1269 C          18.0057    1.2935   -0.1862 C.3    28  UNL28       0.1805
   1270 H          17.9513    1.2740   -1.2777 H      28  UNL28       0.0806
   1271 CL         18.3056   -0.3209    4.0988 Cl     28  UNL28      -0.0870
   1272 CL         16.4743    1.9428    4.0207 Cl     28  UNL28      -0.0870
   1273 CL         19.3443    2.3824    3.7867 Cl     28  UNL28      -0.0870
   1274 C          18.0037    1.2853    3.4148 C.3    28  UNL28       0.1805
   1275 H          17.9300    1.1881    2.3286 H      28  UNL28       0.0806
   1276 CL         18.2667   -0.3865    7.4889 Cl     28  UNL28      -0.0870
   1277 CL         16.4333    1.8753    7.5731 Cl     28  UNL28      -0.0870
   1278 CL         19.3097    2.3282    7.6516 Cl     28  UNL28      -0.0870
   1279 C          18.0137    1.3016    7.0146 C.3    28  UNL28       0.1805
   1280 H          18.0345    1.3590    5.9233 H      28  UNL28       0.0806
   1281 CL         18.3252   -0.3235   11.2814 Cl     28  UNL28      -0.0870
   1282 CL         16.4820    1.9318   11.2587 Cl     28  UNL28      -0.0870
   1283 CL         19.3443    2.3870   10.9671 Cl     28  UNL28      -0.0870
   1284 C          18.0013    1.2860   10.6157 C.3    28  UNL28       0.1805
   1285 H          17.9050    1.1964    9.5306 H      28  UNL28       0.0806
   1286 CL         18.2479   -0.3684   14.7763 Cl     28  UNL28      -0.0870
   1287 CL         16.4590    1.9302   14.7891 Cl     28  UNL28      -0.0870
   1288 CL         19.3440    2.3301   14.7525 Cl     28  UNL28      -0.0870
   1289 C          18.0101    1.2951   14.2152 C.3    28  UNL28       0.1805
   1290 H          17.9968    1.2908   13.1223 H      28  UNL28       0.0806
   1291 CL         18.3152   -0.3273   18.4766 Cl     28  UNL28      -0.0870
   1292 CL         16.4793    1.9339   18.4490 Cl     28  UNL28      -0.0870
   1293 CL         19.3454    2.3816   18.1856 Cl     28  UNL28      -0.0870
   1294 C          18.0023    1.2867   17.8163 C.3    28  UNL28       0.1805
   1295 H          17.9156    1.2029   16.7300 H      28  UNL28       0.0806
   1296 CL         18.2388   -0.3702   21.9754 Cl     28  UNL28      -0.0870
   1297 CL         16.4578    1.9346   21.9796 Cl     28  UNL28      -0.0870
   1298 CL         19.3444    2.3246   21.9655 Cl     28  UNL28      -0.0870
   1299 C          18.0109    1.2953   21.4160 C.3    28  UNL28       0.1805
   1300 H          18.0059    1.2933   20.3230 H      28  UNL28       0.0806
   1301 CL         18.2944   -0.3349   25.6657 Cl     28  UNL28      -0.0870
   1302 CL         16.4706    1.9358   25.6209 Cl     28  UNL28      -0.0870
   1303 CL         19.3444    2.3717   25.4302 Cl     28  UNL28      -0.0870
   1304 C          18.0050    1.2880   25.0169 C.3    28  UNL28       0.1805
   1305 H          17.9435    1.2171   23.9279 H      28  UNL28       0.0806
   1306 CL         18.2503   -0.3624   29.1988 Cl     28  UNL28      -0.0870
   1307 CL         16.4601    1.9353   29.1876 Cl     28  UNL28      -0.0870
   1308 CL         19.3448    2.3362   29.1361 Cl     28  UNL28      -0.0870
   1309 C          18.0097    1.2936   28.6169 C.3    28  UNL28       0.1805
   1310 H          17.9928    1.2750   27.5241 H      28  UNL28       0.0806
   1311 CL         18.2945   -0.3400   32.8508 Cl     28  UNL28      -0.0870
   1312 CL         16.4706    1.9309   32.8279 Cl     28  UNL28      -0.0870
   1313 CL         19.3443    2.3690   32.6413 Cl     28  UNL28      -0.0870
   1314 C          18.0050    1.2891   32.2176 C.3    28  UNL28       0.1805
   1315 H          17.9435    1.2286   31.1280 H      28  UNL28       0.0806
   1316 CL         18.2456   -0.3784   36.3411 Cl     28  UNL28      -0.0870
   1317 CL         16.4144    1.8861   36.2850 Cl     28  UNL28      -0.0870
   1318 CL         19.2842    2.3385   36.4955 Cl     28  UNL28      -0.0870
   1319 C          18.0194    1.2991   35.8179 C.3    28  UNL28       0.1805
   1320 H          18.0941    1.3324   34.7280 H      28  UNL28       0.0806
   1321 CL         16.5519    6.8601    2.2646 Cl     28  UNL28      -0.0870
   1322 CL         19.4553    6.7734    2.4812 Cl     28  UNL28      -0.0870
   1323 CL         17.9289    4.2953    2.3638 Cl     28  UNL28      -0.0870
   1324 C          18.0202    5.9771    1.8140 C.3    28  UNL28       0.1805
   1325 H          18.1015    5.9786    0.7240 H      28  UNL28       0.0806
   1326 CL         16.5407    6.6626    6.1540 Cl     28  UNL28      -0.0870
   1327 CL         19.4454    6.8311    6.0174 Cl     28  UNL28      -0.0870
   1328 CL         18.1208    4.2529    5.7283 Cl     28  UNL28      -0.0870
   1329 C          18.0053    5.9931    5.4153 C.3    28  UNL28       0.1805
   1330 H          17.9456    6.1449    4.3346 H      28  UNL28       0.0806
   1331 CL         16.6563    7.0430    9.3529 Cl     28  UNL28      -0.0870
   1332 CL         19.5217    6.6377    9.6834 Cl     28  UNL28      -0.0870
   1333 CL         17.7192    4.3495    9.6684 Cl     28  UNL28      -0.0870
   1334 C          18.0236    5.9682    9.0154 C.3    28  UNL28       0.1805
   1335 H          18.1370    5.8860    7.9314 H      28  UNL28       0.0806
   1336 CL         16.4829    6.5166   13.3591 Cl     28  UNL28      -0.0870
   1337 CL         19.3502    6.9945   13.1731 Cl     28  UNL28      -0.0870
   1338 CL         18.3098    4.2811   12.9730 Cl     28  UNL28      -0.0870
   1339 C          18.0021    5.9891   12.6159 C.3    28  UNL28       0.1805
   1340 H          17.9128    6.1032   11.5325 H      28  UNL28       0.0806
   1341 CL         16.6663    7.0502   16.5787 Cl     28  UNL28      -0.0870
   1342 CL         19.5298    6.6155   16.8881 Cl     28  UNL28      -0.0870
   1343 CL         17.7082    4.3430   16.8425 Cl     28  UNL28      -0.0870
   1344 C          18.0230    5.9701   16.2160 C.3    28  UNL28       0.1805
   1345 H          18.1305    5.9057   15.1302 H      28  UNL28       0.0806
   1346 CL         16.4943    6.5981   20.5102 Cl     28  UNL28      -0.0870
   1347 CL         19.3846    6.9393   20.3917 Cl     28  UNL28      -0.0870
   1348 CL         18.2240    4.2738   20.2102 Cl     28  UNL28      -0.0870
   1349 C          18.0056    5.9874   19.8163 C.3    28  UNL28       0.1805
   1350 H          17.9493    6.0859   18.7292 H      28  UNL28       0.0806
   1351 CL         16.6536    7.0236   23.8204 Cl     28  UNL28      -0.0870
   1352 CL         19.5300    6.6354   24.0648 Cl     28  UNL28      -0.0870
   1353 CL         17.7471    4.3321   24.0299 Cl     28  UNL28      -0.0870
   1354 C          18.0207    5.9717   23.4165 C.3    28  UNL28       0.1805
   1355 H          18.1064    5.9218   22.3280 H      28  UNL28       0.0806
   1356 CL         16.5161    6.6768   27.6771 Cl     28  UNL28      -0.0870
   1357 CL         19.4210    6.8786   27.6051 Cl     28  UNL28      -0.0870
   1358 CL         18.1376    4.2693   27.4346 Cl     28  UNL28      -0.0870
   1359 C          18.0081    5.9862   27.0169 C.3    28  UNL28       0.1805
   1360 H          17.9749    6.0736   25.9279 H      28  UNL28       0.0806
   1361 CL         16.5208    6.7946   31.0960 Cl     28  UNL28      -0.0870
   1362 CL         19.4289    6.8373   31.2562 Cl     28  UNL28      -0.0870
   1363 CL         18.0122    4.2937   31.1687 Cl     28  UNL28      -0.0870
   1364 C          18.0180    5.9774   30.6170 C.3    28  UNL28       0.1805
   1365 H          18.0780    5.9815   29.5257 H      28  UNL28       0.0806
   1366 CL         16.6015    6.8245   34.8954 Cl     28  UNL28      -0.0870
   1367 CL         19.5109    6.7240   34.7989 Cl     28  UNL28      -0.0870
   1368 CL         17.9619    4.2633   34.6238 Cl     28  UNL28      -0.0870
   1369 C          18.0081    5.9873   34.2177 C.3    28  UNL28       0.1805
   1370 H          17.9754    6.0854   33.1296 H      28  UNL28       0.0806
   1371 CL         16.6822    7.0789   38.1371 Cl     28  UNL28      -0.0870
   1372 CL         19.5445    6.6274   38.4337 Cl     28  UNL28      -0.0870
   1373 CL         17.6964    4.3784   38.5407 Cl     28  UNL28      -0.0870
   1374 C          18.0214    5.9635   37.8188 C.3    28  UNL28       0.1805
   1375 H          18.1134    5.8364   36.7371 H      28  UNL28       0.0806
   1376 CL         19.5229   11.6852    2.1638 Cl     28  UNL28      -0.0870
   1377 CL         18.0051    9.2260    2.5286 Cl     28  UNL28      -0.0870
   1378 CL         16.6224   11.7870    2.4100 Cl     28  UNL28      -0.0870
   1379 C          18.0014   10.8474    1.8146 C.3    28  UNL28       0.1805
   1380 H          17.9059   10.7457    0.7305 H      28  UNL28       0.0806
   1381 CL         19.5888   11.3591    6.0632 Cl     28  UNL28      -0.0870
   1382 CL         17.7583    9.1398    5.6070 Cl     28  UNL28      -0.0870
   1383 CL         16.7120   11.7899    6.2129 Cl     28  UNL28      -0.0870
   1384 C          18.0094   10.8832    5.4168 C.3    28  UNL28       0.1805
   1385 H          17.9893   11.1193    4.3497 H      28  UNL28       0.0806
   1386 CL         19.3451   11.9737    9.1163 Cl     28  UNL28      -0.0870
   1387 CL         18.3711    9.3453    9.9080 Cl     28  UNL28      -0.0870
   1388 CL         16.5086   11.5687    9.6398 Cl     28  UNL28      -0.0870
   1389 C          17.9949   10.8308    9.0190 C.3    28  UNL28       0.1805
   1390 H          17.8380   10.5727    7.9685 H      28  UNL28       0.0806
   1391 CL         19.5725   11.2335   13.3983 Cl     28  UNL28      -0.0870
   1392 CL         17.6659    9.1553   12.6699 Cl     28  UNL28      -0.0870
   1393 CL         16.7180   11.8131   13.3927 Cl     28  UNL28      -0.0870
   1394 C          18.0184   10.8908   12.6197 C.3    28  UNL28       0.1805
   1395 H          18.0830   11.1986   11.5729 H      28  UNL28       0.0806
   1396 CL         19.3679   11.9444   16.2714 Cl     28  UNL28      -0.0870
   1397 CL         18.3442    9.3660   17.1592 Cl     28  UNL28      -0.0870
   1398 CL         16.5266   11.6173   16.8232 Cl     28  UNL28      -0.0870
   1399 C          17.9937   10.8273   16.2209 C.3    28  UNL28       0.1805
   1400 H          17.8253   10.5362   15.1809 H      28  UNL28       0.0806
   1401 CL         19.5256   11.5263   20.6467 Cl     28  UNL28      -0.0870
   1402 CL         17.7365    9.3414   19.9329 Cl     28  UNL28      -0.0870
   1403 CL         16.6535   11.9865   20.4948 Cl     28  UNL28      -0.0870
   1404 C          18.0220   11.0862   19.8195 C.3    28  UNL28       0.1805
   1405 H          18.1202   11.3508   18.7636 H      28  UNL28       0.0806
   1406 CL         19.3482   12.1475   23.7555 Cl     28  UNL28      -0.0870
   1407 CL         18.3287    9.4380   24.0772 Cl     28  UNL28      -0.0870
   1408 CL         16.4886   11.6961   24.0769 Cl     28  UNL28      -0.0870
   1409 C          18.0002   11.0488   23.4170 C.3    28  UNL28       0.1805
   1410 H          17.8922   10.9608   22.3329 H      28  UNL28       0.0806
   1411 CL         19.5342   11.5368   27.8220 Cl     28  UNL28      -0.0870
   1412 CL         17.8133    9.3362   26.9974 Cl     28  UNL28      -0.0870
   1413 CL         16.6405   11.8695   27.8289 Cl     28  UNL28      -0.0870
   1414 C          18.0157   11.0960   27.0228 C.3    28  UNL28       0.1805
   1415 H          18.0542   11.4528   25.9904 H      28  UNL28       0.0806
   1416 CL         19.5073   11.7580   31.2767 Cl     28  UNL28      -0.0870
   1417 CL         17.9108    9.3400   30.9790 Cl     28  UNL28      -0.0870
   1418 CL         16.5995   11.9260   31.2585 Cl     28  UNL28      -0.0870
   1419 C          18.0131   11.0714   30.6176 C.3    28  UNL28       0.1805
   1420 H          18.0271   11.1959   29.5318 H      28  UNL28       0.0806
   1421 CL         19.4831   11.5042   35.1446 Cl     28  UNL28      -0.0870
   1422 CL         17.9486    9.3851   33.8644 Cl     28  UNL28      -0.0870
   1423 CL         16.5726   11.6168   35.1335 Cl     28  UNL28      -0.0870
   1424 C          18.0142   11.1167   34.2331 C.3    28  UNL28       0.1805
   1425 H          18.0392   11.6685   33.2899 H      28  UNL28       0.0806
   1426 CL         19.4608   11.4197   38.8235 Cl     28  UNL28      -0.0870
   1427 CL         18.0547    9.5239   37.1167 Cl     28  UNL28      -0.0870
   1428 CL         16.5493   11.3327   38.8334 Cl     28  UNL28      -0.0870
   1429 C          18.0089   11.1368   37.8483 C.3    28  UNL28       0.1805
   1430 H          17.9841   11.8781   37.0455 H      28  UNL28       0.0806
   1431 CL         19.3443   16.9911    2.3051 Cl     28  UNL28      -0.0870
   1432 CL         18.1961   14.3252    2.5483 Cl     28  UNL28      -0.0870
   1433 CL         16.4533   16.6403    2.2521 Cl     28  UNL28      -0.0870
   1434 C          18.0152   15.9275    1.8143 C.3    28  UNL28       0.1805
   1435 H          18.0489   15.8140    0.7278 H      28  UNL28       0.0806
   1436 CL         19.3442   16.8998    6.0999 Cl     28  UNL28      -0.0870
   1437 CL         18.2950   14.2263    5.6148 Cl     28  UNL28      -0.0870
   1438 CL         16.4708   16.4281    6.1708 Cl     28  UNL28      -0.0870
   1439 C          18.0050   15.9627    5.4165 C.3    28  UNL28       0.1805
   1440 H          17.9428   16.1812    4.3474 H      28  UNL28       0.0806
   1441 CL         19.3441   16.9873    9.5170 Cl     28  UNL28      -0.0870
   1442 CL         18.0840   14.3923    9.9201 Cl     28  UNL28      -0.0870
   1443 CL         16.4576   16.7117    9.2416 Cl     28  UNL28      -0.0870
   1444 C          18.0246   15.9157    9.0177 C.3    28  UNL28       0.1805
   1445 H          18.1475   15.6911    7.9551 H      28  UNL28       0.0806
   1446 CL         19.3442   16.9098   13.2837 Cl     28  UNL28      -0.0870
   1447 CL         18.2839   14.2282   12.8723 Cl     28  UNL28      -0.0870
   1448 CL         16.4675   16.4567   13.3404 Cl     28  UNL28      -0.0870
   1449 C          18.0063   15.9592   12.6166 C.3    28  UNL28       0.1805
   1450 H          17.9560   16.1442   11.5406 H      28  UNL28       0.0806
   1451 CL         19.3451   16.9595   16.7833 Cl     28  UNL28      -0.0870
   1452 CL         18.0084   14.3947   17.1288 Cl     28  UNL28      -0.0870
   1453 CL         16.4714   16.7461   16.3586 Cl     28  UNL28      -0.0870
   1454 C          18.0299   15.9149   16.2194 C.3    28  UNL28       0.1805
   1455 H          18.2030   15.6829   15.1654 H      28  UNL28       0.0806
   1456 CL         19.2890   16.9284   20.5745 Cl     28  UNL28      -0.0870
   1457 CL         18.3844   14.2415   19.9060 Cl     28  UNL28      -0.0870
   1458 CL         16.4441   16.3035   20.5902 Cl     28  UNL28      -0.0870
   1459 C          18.0044   15.9698   19.8199 C.3    28  UNL28       0.1805
   1460 H          17.9360   16.2549   18.7669 H      28  UNL28       0.0806
   1461 CL         19.4796   16.7397   24.0091 Cl     28  UNL28      -0.0870
   1462 CL         17.7090   14.4586   24.3911 Cl     28  UNL28      -0.0870
   1463 CL         16.6329   16.9958   23.4480 Cl     28  UNL28      -0.0870
   1464 C          18.0302   15.9067   23.4224 C.3    28  UNL28       0.1805
   1465 H          18.2061   15.5972   22.3890 H      28  UNL28       0.0806
   1466 CL         19.3448   16.8799   27.7335 Cl     28  UNL28      -0.0870
   1467 CL         18.2812   14.2230   27.1914 Cl     28  UNL28      -0.0870
   1468 CL         16.4673   16.4290   27.7640 Cl     28  UNL28      -0.0870
   1469 C          18.0065   15.9647   27.0193 C.3    28  UNL28       0.1805
   1470 H          17.9581   16.2016   25.9534 H      28  UNL28       0.0806
   1471 CL         19.3441   17.0266   30.9891 Cl     28  UNL28      -0.0870
   1472 CL         18.1820   14.4158   31.5525 Cl     28  UNL28      -0.0870
   1473 CL         16.4524   16.6795   30.9450 Cl     28  UNL28      -0.0870
   1474 C          18.0165   15.9130   30.6200 C.3    28  UNL28       0.1805
   1475 H          18.0628   15.6632   29.5570 H      28  UNL28       0.0806
   1476 CL         19.3449   16.9022   34.8976 Cl     28  UNL28      -0.0870
   1477 CL         18.2693   14.2269   34.4852 Cl     28  UNL28      -0.0870
   1478 CL         16.4643   16.4709   34.9222 Cl     28  UNL28      -0.0870
   1479 C          18.0078   15.9587   34.2189 C.3    28  UNL28       0.1805
   1480 H          17.9715   16.1394   33.1415 H      28  UNL28       0.0806
   1481 CL         19.3443   16.9817   38.3346 Cl     28  UNL28      -0.0870
   1482 CL         18.1489   14.3386   38.5975 Cl     28  UNL28      -0.0870
   1483 CL         16.4525   16.6693   38.1792 Cl     28  UNL28      -0.0870
   1484 C          18.0194   15.9246   37.8189 C.3    28  UNL28       0.1805
   1485 H          18.0927   15.7840   36.7374 H      28  UNL28       0.0806
   1486 CL         16.7140   21.6967    2.3562 Cl     28  UNL28      -0.0870
   1487 CL         19.5839   21.2002    2.3938 Cl     28  UNL28      -0.0870
   1488 CL         17.7189   18.9628    2.3632 Cl     28  UNL28      -0.0870
   1489 C          18.0132   20.6213    1.8136 C.3    28  UNL28       0.1805
   1490 H          18.0279   20.6239    0.7207 H      28  UNL28       0.0806
   1491 CL         16.7558   21.6967    6.0674 Cl     28  UNL28      -0.0870
   1492 CL         19.5951   21.0476    6.1074 Cl     28  UNL28      -0.0870
   1493 CL         17.6238   18.9373    5.7258 Cl     28  UNL28      -0.0870
   1494 C          18.0169   20.6369    5.4152 C.3    28  UNL28       0.1805
   1495 H          18.0662   20.7863    4.3336 H      28  UNL28       0.0806
   1496 CL         16.6474   21.6963    9.2061 Cl     28  UNL28      -0.0870
   1497 CL         19.5273   21.3833    9.5107 Cl     28  UNL28      -0.0870
   1498 CL         17.7602   19.1105    9.9540 Cl     28  UNL28      -0.0870
   1499 C          18.0204   20.5924    9.0183 C.3    28  UNL28       0.1805
   1500 H          18.1026   20.3224    7.9624 H      28  UNL28       0.0806
   1501 CL         16.7700   21.6402   13.3960 Cl     28  UNL28      -0.0870
   1502 CL         19.6089   20.9946   13.3070 Cl     28  UNL28      -0.0870
   1503 CL         17.6275   18.9258   12.7787 Cl     28  UNL28      -0.0870
   1504 C          18.0141   20.6475   12.6179 C.3    28  UNL28       0.1805
   1505 H          18.0374   20.8968   11.5540 H      28  UNL28       0.0806
   1506 CL         16.6494   21.6971   16.4286 Cl     28  UNL28      -0.0870
   1507 CL         19.5306   21.3765   16.7115 Cl     28  UNL28      -0.0870
   1508 CL         17.7631   19.1007   17.1376 Cl     28  UNL28      -0.0870
   1509 C          18.0196   20.5938   16.2187 C.3    28  UNL28       0.1805
   1510 H          18.0950   20.3368   15.1591 H      28  UNL28       0.0806
   1511 CL         16.7929   21.6753   20.5844 Cl     28  UNL28      -0.0870
   1512 CL         19.6087   20.9313   20.5446 Cl     28  UNL28      -0.0870
   1513 CL         17.5676   18.9400   19.9503 Cl     28  UNL28      -0.0870
   1514 C          18.0174   20.6487   19.8191 C.3    28  UNL28       0.1805
   1515 H          18.0713   20.9097   18.7591 H      28  UNL28       0.0806
   1516 CL         16.4971   21.3918   23.8998 Cl     28  UNL28      -0.0870
   1517 CL         19.3764   21.6971   23.5819 Cl     28  UNL28      -0.0870
   1518 CL         18.2641   19.1279   24.3865 Cl     28  UNL28      -0.0870
   1519 C          18.0026   20.5901   23.4206 C.3    28  UNL28       0.1805
   1520 H          17.9176   20.2981   22.3707 H      28  UNL28       0.0806
   1521 CL         16.7700   21.6268   27.8177 Cl     28  UNL28      -0.0870
   1522 CL         19.6062   20.9688   27.7318 Cl     28  UNL28      -0.0870
   1523 CL         17.6183   18.9273   27.1272 Cl     28  UNL28      -0.0870
   1524 C          18.0151   20.6508   27.0204 C.3    28  UNL28       0.1805
   1525 H          18.0481   20.9312   25.9645 H      28  UNL28       0.0806
   1526 CL         16.6477   21.6966   30.8097 Cl     28  UNL28      -0.0870
   1527 CL         19.5299   21.3870   31.0947 Cl     28  UNL28      -0.0870
   1528 CL         17.7671   19.1176   31.5714 Cl     28  UNL28      -0.0870
   1529 C          18.0195   20.5914   30.6209 C.3    28  UNL28       0.1805
   1530 H          18.0937   20.3123   29.5668 H      28  UNL28       0.0806
   1531 CL         16.7484   21.6254   34.9800 Cl     28  UNL28      -0.0870
   1532 CL         19.5959   21.0142   34.9316 Cl     28  UNL28      -0.0870
   1533 CL         17.6474   18.9213   34.3768 Cl     28  UNL28      -0.0870
   1534 C          18.0154   20.6474   34.2203 C.3    28  UNL28       0.1805
   1535 H          18.0507   20.8965   33.1567 H      28  UNL28       0.0806
   1536 CL         16.6491   21.6965   38.0337 Cl     28  UNL28      -0.0870
   1537 CL         19.5298   21.3748   38.3204 Cl     28  UNL28      -0.0870
   1538 CL         17.7618   19.0968   38.7321 Cl     28  UNL28      -0.0870
   1539 C          18.0198   20.5943   37.8210 C.3    28  UNL28       0.1805
   1540 H          18.0972   20.3425   36.7603 H      28  UNL28       0.0806
   1541 CL         19.2901   26.7374    2.4925 Cl     28  UNL28      -0.0870
   1542 CL         18.3395   24.0073    2.1359 Cl     28  UNL28      -0.0870
   1543 CL         16.4309   26.1819    2.4723 Cl     28  UNL28      -0.0870
   1544 C          18.0093   25.7180    1.8147 C.3    28  UNL28       0.1805
   1545 H          17.9881   25.8669    0.7321 H      28  UNL28       0.0806
   1546 CL         19.3443   26.7531    5.9075 Cl     28  UNL28      -0.0870
   1547 CL         18.2010   24.0839    6.1364 Cl     28  UNL28      -0.0870
   1548 CL         16.4536   26.3984    5.8639 Cl     28  UNL28      -0.0870
   1549 C          18.0147   25.6910    5.4146 C.3    28  UNL28       0.1805
   1550 H          18.0442   25.5853    4.3271 H      28  UNL28       0.0806
   1551 CL         19.2282   26.8574    9.5871 Cl     28  UNL28      -0.0870
   1552 CL         18.3984   24.0654    9.5707 Cl     28  UNL28      -0.0870
   1553 CL         16.3954   26.1803    9.5579 Cl     28  UNL28      -0.0870
   1554 C          18.0127   25.7026    9.0144 C.3    28  UNL28       0.1805
   1555 H          18.0232   25.7060    7.9215 H      28  UNL28       0.0806
   1556 CL         19.3441   26.6987   13.2352 Cl     28  UNL28      -0.0870
   1557 CL         18.2700   24.0024   12.9888 Cl     28  UNL28      -0.0870
   1558 CL         16.4637   26.2684   13.2849 Cl     28  UNL28      -0.0870
   1559 C          18.0078   25.7143   12.6155 C.3    28  UNL28       0.1805
   1560 H          17.9721   25.8279   11.5290 H      28  UNL28       0.0806
   1561 CL         19.3441   26.7712   16.6548 Cl     28  UNL28      -0.0870
   1562 CL         18.1974   24.1196   17.0265 Cl     28  UNL28      -0.0870
   1563 CL         16.4531   26.4170   16.6209 Cl     28  UNL28      -0.0870
   1564 C          18.0151   25.6847   16.2166 C.3    28  UNL28       0.1805
   1565 H          18.0481   25.5192   15.1367 H      28  UNL28       0.0806
   1566 CL         19.3442   26.7011   20.4310 Cl     28  UNL28      -0.0870
   1567 CL         18.3049   23.9984   20.1154 Cl     28  UNL28      -0.0870
   1568 CL         16.4741   26.2207   20.5566 Cl     28  UNL28      -0.0870
   1569 C          18.0039   25.7186   19.8170 C.3    28  UNL28       0.1805
   1570 H          17.9308   25.8729   18.7374 H      28  UNL28       0.0806
   1571 CL         19.3440   26.7305   23.9684 Cl     28  UNL28      -0.0870
   1572 CL         18.0561   24.1376   24.2887 Cl     28  UNL28      -0.0870
   1573 CL         16.4616   26.4843   23.6290 Cl     28  UNL28      -0.0870
   1574 C          18.0267   25.6808   23.4191 C.3    28  UNL28       0.1805
   1575 H          18.1694   25.4785   22.3545 H      28  UNL28       0.0806
   1576 CL         19.3415   26.6544   27.7220 Cl     28  UNL28      -0.0870
   1577 CL         18.2873   23.9875   27.2118 Cl     28  UNL28      -0.0870
   1578 CL         16.4657   26.1938   27.7584 Cl     28  UNL28      -0.0870
   1579 C          18.0064   25.7260   27.0190 C.3    28  UNL28       0.1805
   1580 H          17.9570   25.9500   25.9503 H      28  UNL28       0.0806
   1581 CL         19.3440   26.7840   31.0113 Cl     28  UNL28      -0.0870
   1582 CL         18.2148   24.1371   31.4619 Cl     28  UNL28      -0.0870
   1583 CL         16.4545   26.4171   31.0292 Cl     28  UNL28      -0.0870
   1584 C          18.0135   25.6821   30.6186 C.3    28  UNL28       0.1805
   1585 H          18.0311   25.4915   29.5425 H      28  UNL28       0.0806
   1586 CL         19.3440   26.6763   34.8797 Cl     28  UNL28      -0.0870
   1587 CL         18.2619   23.9939   34.5369 Cl     28  UNL28      -0.0870
   1588 CL         16.4618   26.2558   34.8946 Cl     28  UNL28      -0.0870
   1589 C          18.0087   25.7181   34.2183 C.3    28  UNL28       0.1805
   1590 H          17.9813   25.8676   33.1360 H      28  UNL28       0.0806
   1591 CL         19.3424   26.7769   38.2452 Cl     28  UNL28      -0.0870
   1592 CL         18.2199   24.1139   38.6093 Cl     28  UNL28      -0.0870
   1593 CL         16.4537   26.4034   38.2574 Cl     28  UNL28      -0.0870
   1594 C          18.0132   25.6859   37.8188 C.3    28  UNL28       0.1805
   1595 H          18.0286   25.5316   36.7369 H      28  UNL28       0.0806
   1596 CL         16.4759   31.6539    2.2355 Cl     28  UNL28      -0.0870
   1597 CL         19.3451   31.2062    2.4624 Cl     28  UNL28      -0.0870
   1598 CL         17.5168   28.9391    2.4110 Cl     28  UNL28      -0.0870
   1599 C          17.8201   30.5795    1.8140 C.3    28  UNL28       0.1805
   1600 H          17.9000   30.5398    0.7247 H      28  UNL28       0.0806
   1601 CL         16.4937   31.6246    5.9802 Cl     28  UNL28      -0.0870
   1602 CL         19.3768   31.2109    5.9538 Cl     28  UNL28      -0.0870
   1603 CL         17.5770   28.9208    5.9804 Cl     28  UNL28      -0.0870
   1604 C          17.8105   30.5833    5.4140 C.3    28  UNL28       0.1805
   1605 H          17.7998   30.5790    4.3211 H      28  UNL28       0.0806
   1606 CL         16.5762   31.7744    9.4115 Cl     28  UNL28      -0.0870
   1607 CL         19.4048   31.1036    9.5932 Cl     28  UNL28      -0.0870
   1608 CL         17.3980   28.9953    9.7042 Cl     28  UNL28      -0.0870
   1609 C          17.8165   30.5730    9.0150 C.3    28  UNL28       0.1805
   1610 H          17.8623   30.4721    7.9277 H      28  UNL28       0.0806
   1611 CL         16.4035   31.4033   13.3378 Cl     28  UNL28      -0.0870
   1612 CL         19.3124   31.2645   13.2848 Cl     28  UNL28      -0.0870
   1613 CL         17.7315   28.8527   12.8741 Cl     28  UNL28      -0.0870
   1614 C          17.8105   30.6039   12.6166 C.3    28  UNL28       0.1805
   1615 H          17.7999   30.7941   11.5403 H      28  UNL28       0.0806
   1616 CL         16.5588   31.7780   16.4961 Cl     28  UNL28      -0.0870
   1617 CL         19.3925   31.1610   16.7674 Cl     28  UNL28      -0.0870
   1618 CL         17.4091   29.0442   17.0320 Cl     28  UNL28      -0.0870
   1619 C          17.8181   30.5634   16.2172 C.3    28  UNL28       0.1805
   1620 H          17.8792   30.3719   15.1428 H      28  UNL28       0.0806
   1621 CL         16.4477   31.4491   20.5749 Cl     28  UNL28      -0.0870
   1622 CL         19.3445   31.1480   20.5272 Cl     28  UNL28      -0.0870
   1623 CL         17.6326   28.8549   19.9830 Cl     28  UNL28      -0.0870
   1624 C          17.8125   30.6099   19.8186 C.3    28  UNL28       0.1805
   1625 H          17.8205   30.8566   18.7539 H      28  UNL28       0.0806
   1626 CL         16.4015   31.5777   23.7478 Cl     28  UNL28      -0.0870
   1627 CL         19.3060   31.4018   23.8792 Cl     28  UNL28      -0.0870
   1628 CL         17.6830   29.0147   24.2703 Cl     28  UNL28      -0.0870
   1629 C          17.8155   30.5625   23.4181 C.3    28  UNL28       0.1805
   1630 H          17.8518   30.3618   22.3442 H      28  UNL28       0.0806
   1631 CL         16.4487   31.4657   27.7550 Cl     28  UNL28      -0.0870
   1632 CL         19.3438   31.1463   27.7312 Cl     28  UNL28      -0.0870
   1633 CL         17.6216   28.8569   27.2049 Cl     28  UNL28      -0.0870
   1634 C          17.8134   30.6084   27.0191 C.3    28  UNL28       0.1805
   1635 H          17.8302   30.8412   25.9513 H      28  UNL28       0.0806
   1636 CL         16.4427   31.6162   31.0208 Cl     28  UNL28      -0.0870
   1637 CL         19.3440   31.3589   31.0041 Cl     28  UNL28      -0.0870
   1638 CL         17.6768   29.0173   31.4754 Cl     28  UNL28      -0.0870
   1639 C          17.8091   30.5626   30.6188 C.3    28  UNL28       0.1805
   1640 H          17.7851   30.3634   29.5444 H      28  UNL28       0.0806
   1641 CL         16.5432   31.6087   34.9359 Cl     28  UNL28      -0.0870
   1642 CL         19.3862   30.9758   34.9574 Cl     28  UNL28      -0.0870
   1643 CL         17.4334   28.8878   34.3991 Cl     28  UNL28      -0.0870
   1644 C          17.8179   30.6081   34.2200 C.3    28  UNL28       0.1805
   1645 H          17.8771   30.8380   33.1531 H      28  UNL28       0.0806
   1646 CL         16.4425   31.6059   38.2555 Cl     28  UNL28      -0.0870
   1647 CL         19.3444   31.3642   38.1872 Cl     28  UNL28      -0.0870
   1648 CL         17.6975   29.0090   38.6619 Cl     28  UNL28      -0.0870
   1649 C          17.8073   30.5638   37.8194 C.3    28  UNL28       0.1805
   1650 H          17.7662   30.3756   36.7435 H      28  UNL28       0.0806
   1651 CL         24.6088   -0.7313    2.2894 Cl     28  UNL28      -0.0870
   1652 CL         23.0899   -3.2005    2.5727 Cl     28  UNL28      -0.0870
   1653 CL         21.6972   -0.6637    2.2411 Cl     28  UNL28      -0.0870
   1654 C          23.1397   -1.6001    1.8145 C.3    28  UNL28       0.1805
   1655 H          23.1546   -1.7336    0.7298 H      28  UNL28       0.0806
   1656 CL         24.6213   -0.7046    5.7456 Cl     28  UNL28      -0.0870
   1657 CL         23.1831   -3.2018    6.1700 Cl     28  UNL28      -0.0870
   1658 CL         21.7184   -0.6908    5.9847 Cl     28  UNL28      -0.0870
   1659 C          23.1286   -1.5999    5.4153 C.3    28  UNL28       0.1805
   1660 H          23.0389   -1.7319    4.3340 H      28  UNL28       0.0806
   1661 CL         24.6134   -0.8186    9.6377 Cl     28  UNL28      -0.0870
   1662 CL         23.0664   -3.2828    9.5021 Cl     28  UNL28      -0.0870
   1663 CL         21.7034   -0.7095    9.5744 Cl     28  UNL28      -0.0870
   1664 C          23.1408   -1.5812    9.0145 C.3    28  UNL28       0.1805
   1665 H          23.1662   -1.5370    7.9227 H      28  UNL28       0.0806
   1666 CL         24.5892   -0.6693   13.0080 Cl     28  UNL28      -0.0870
   1667 CL         23.1561   -3.1648   13.4585 Cl     28  UNL28      -0.0870
   1668 CL         21.6767   -0.6924   13.0300 Cl     28  UNL28      -0.0870
   1669 C          23.1374   -1.6061   12.6166 C.3    28  UNL28       0.1805
   1670 H          23.1308   -1.7965   11.5403 H      28  UNL28       0.0806
   1671 CL         24.6362   -0.8969   16.8823 Cl     28  UNL28      -0.0870
   1672 CL         23.0628   -3.3159   16.4864 Cl     28  UNL28      -0.0870
   1673 CL         21.7268   -0.7659   16.9306 Cl     28  UNL28      -0.0870
   1674 C          23.1370   -1.5665   16.2168 C.3    28  UNL28       0.1805
   1675 H          23.1274   -1.3838   15.1393 H      28  UNL28       0.0806
   1676 CL         24.6128   -0.7157   20.2329 Cl     28  UNL28      -0.0870
   1677 CL         23.0432   -3.1125   20.7582 Cl     28  UNL28      -0.0870
   1678 CL         21.7055   -0.6131   20.0888 Cl     28  UNL28      -0.0870
   1679 C          23.1427   -1.6135   19.8191 C.3    28  UNL28       0.1805
   1680 H          23.1860   -1.8743   18.7585 H      28  UNL28       0.0806
   1681 CL         24.5638   -0.7386   24.0536 Cl     28  UNL28      -0.0870
   1682 CL         23.2526   -3.3137   23.6883 Cl     28  UNL28      -0.0870
   1683 CL         21.6587   -0.9215   24.1593 Cl     28  UNL28      -0.0870
   1684 C          23.1327   -1.5670   23.4177 C.3    28  UNL28       0.1805
   1685 H          23.0823   -1.3884   22.3406 H      28  UNL28       0.0806
   1686 CL         24.5487   -0.6634   27.5591 Cl     28  UNL28      -0.0870
   1687 CL         23.0721   -3.1533   27.8818 Cl     28  UNL28      -0.0870
   1688 CL         21.6526   -0.6896   27.2491 Cl     28  UNL28      -0.0870
   1689 C          23.1504   -1.6079   27.0192 C.3    28  UNL28       0.1805
   1690 H          23.2665   -1.8149   25.9523 H      28  UNL28       0.0806
   1691 CL         24.5585   -0.6461   31.0822 Cl     28  UNL28      -0.0870
   1692 CL         23.2708   -3.2562   31.1967 Cl     28  UNL28      -0.0870
   1693 CL         21.6561   -0.8323   31.2419 Cl     28  UNL28      -0.0870
   1694 C          23.1318   -1.5879   30.6170 C.3    28  UNL28       0.1805
   1695 H          23.0730   -1.6067   29.5258 H      28  UNL28       0.0806
   1696 CL         24.6652   -0.7593   34.4193 Cl     28  UNL28      -0.0870
   1697 CL         23.0768   -3.0458   35.2754 Cl     28  UNL28      -0.0870
   1698 CL         21.7639   -0.5454   34.5620 Cl     28  UNL28      -0.0870
   1699 C          23.1300   -1.6215   34.2231 C.3    28  UNL28       0.1805
   1700 H          23.0543   -1.9572   33.1858 H      28  UNL28       0.0806
   1701 CL         24.4496   -0.4452   37.8916 Cl     28  UNL28      -0.0870
   1702 CL         23.6356   -3.2138   38.2876 Cl     28  UNL28      -0.0870
   1703 CL         21.7732   -1.0507   38.8685 Cl     28  UNL28      -0.0870
   1704 C          23.0992   -1.5901   37.8244 C.3    28  UNL28       0.1805
   1705 H          22.7326   -1.6294   36.7955 H      28  UNL28       0.0806
   1706 CL         21.6331    4.0886    2.2886 Cl     28  UNL28      -0.0870
   1707 CL         24.5406    4.1946    2.4271 Cl     28  UNL28      -0.0870
   1708 CL         23.1768    1.6209    2.3959 Cl     28  UNL28      -0.0870
   1709 C          23.1437    3.2941    1.8138 C.3    28  UNL28       0.1805
   1710 H          23.1961    3.2795    0.7221 H      28  UNL28       0.0806
   1711 CL         21.6695    4.1312    5.9397 Cl     28  UNL28      -0.0870
   1712 CL         24.5815    4.1885    5.9068 Cl     28  UNL28      -0.0870
   1713 CL         23.1765    1.6419    6.0658 Cl     28  UNL28      -0.0870
   1714 C          23.1369    3.2890    5.4142 C.3    28  UNL28       0.1805
   1715 H          23.1257    3.2270    4.3230 H      28  UNL28       0.0806
   1716 CL         21.6679    4.1047    9.5852 Cl     28  UNL28      -0.0870
   1717 CL         24.5780    4.1968    9.5009 Cl     28  UNL28      -0.0870
   1718 CL         23.2051    1.6309    9.6282 Cl     28  UNL28      -0.0870
   1719 C          23.1349    3.2916    9.0145 C.3    28  UNL28       0.1805
   1720 H          23.1044    3.2537    7.9226 H      28  UNL28       0.0806
   1721 CL         21.6381    4.1084   13.0661 Cl     28  UNL28      -0.0870
   1722 CL         24.5351    4.1103   13.3690 Cl     28  UNL28      -0.0870
   1723 CL         23.1034    1.5910   13.0723 Cl     28  UNL28      -0.0870
   1724 C          23.1501    3.3023   12.6157 C.3    28  UNL28       0.1805
   1725 H          23.2635    3.3657   11.5304 H      28  UNL28       0.0806
   1726 CL         21.7128    4.1721   16.8035 Cl     28  UNL28      -0.0870
   1727 CL         24.6121    4.1968   16.5257 Cl     28  UNL28      -0.0870
   1728 CL         23.2132    1.6813   16.9728 Cl     28  UNL28      -0.0870
   1729 C          23.1272    3.2813   16.2166 C.3    28  UNL28       0.1805
   1730 H          23.0248    3.1462   15.1368 H      28  UNL28       0.0806
   1731 CL         24.4411    4.1297   20.7246 Cl     28  UNL28      -0.0870
   1732 CL         23.2170    1.5654   20.0845 Cl     28  UNL28      -0.0870
   1733 CL         21.5682    3.9590   20.2760 Cl     28  UNL28      -0.0870
   1734 C          23.1545    3.3158   19.8186 C.3    28  UNL28       0.1805
   1735 H          23.3094    3.5078   18.7538 H      28  UNL28       0.0806
   1736 CL         21.5245    4.1969   23.9927 Cl     28  UNL28      -0.0870
   1737 CL         24.4190    4.1964   23.6671 Cl     28  UNL28      -0.0870
   1738 CL         23.0168    1.7072   24.2351 Cl     28  UNL28      -0.0870
   1739 C          22.9253    3.2769   23.4183 C.3    28  UNL28       0.1805
   1740 H          22.8046    3.1003   22.3464 H      28  UNL28       0.0806
   1741 CL         24.4983    4.0307   27.9273 Cl     28  UNL28      -0.0870
   1742 CL         23.1005    1.5624   27.2659 Cl     28  UNL28      -0.0870
   1743 CL         21.6183    4.0597   27.4927 Cl     28  UNL28      -0.0870
   1744 C          23.1553    3.3159   27.0195 C.3    28  UNL28       0.1805
   1745 H          23.3178    3.5090   25.9561 H      28  UNL28       0.0806
   1746 CL         21.5134    4.1971   31.1575 Cl     28  UNL28      -0.0870
   1747 CL         24.4152    4.1962   30.9054 Cl     28  UNL28      -0.0870
   1748 CL         22.9987    1.7072   31.4376 Cl     28  UNL28      -0.0870
   1749 C          22.9282    3.2769   30.6188 C.3    28  UNL28       0.1805
   1750 H          22.8347    3.1003   29.5442 H      28  UNL28       0.0806
   1751 CL         24.4813    4.1420   35.0416 Cl     28  UNL28      -0.0870
   1752 CL         23.2723    1.5645   34.4261 Cl     28  UNL28      -0.0870
   1753 CL         21.5862    3.9060   34.8256 Cl     28  UNL28      -0.0870
   1754 C          23.1446    3.3195   34.2199 C.3    28  UNL28       0.1805
   1755 H          23.2058    3.5458   33.1523 H      28  UNL28       0.0806
   1756 CL         21.6233    4.4313   37.8668 Cl     28  UNL28      -0.0870
   1757 CL         24.4155    3.9689   38.5554 Cl     28  UNL28      -0.0870
   1758 CL         22.5095    1.7681   38.6452 Cl     28  UNL28      -0.0870
   1759 C          22.9614    3.2709   37.8227 C.3    28  UNL28       0.1805
   1760 H          23.1805    3.0384   36.7774 H      28  UNL28       0.0806
   1761 CL         23.1073    6.4906    2.3520 Cl     28  UNL28      -0.0870
   1762 CL         21.6360    9.0013    2.2250 Cl     28  UNL28      -0.0870
   1763 CL         24.5329    9.0245    2.5289 Cl     28  UNL28      -0.0870
   1764 C          23.1500    8.1782    1.8143 C.3    28  UNL28       0.1805
   1765 H          23.2640    8.1899    0.7273 H      28  UNL28       0.0806
   1766 CL         23.1623    6.5345    6.0998 Cl     28  UNL28      -0.0870
   1767 CL         21.7284    9.0686    6.0208 Cl     28  UNL28      -0.0870
   1768 CL         24.6315    9.0298    5.7855 Cl     28  UNL28      -0.0870
   1769 C          23.1285    8.1680    5.4148 C.3    28  UNL28       0.1805
   1770 H          23.0394    8.0836    4.3287 H      28  UNL28       0.0806
   1771 CL         23.0597    6.5844    9.8236 Cl     28  UNL28      -0.0870
   1772 CL         21.6538    9.0728    9.2624 Cl     28  UNL28      -0.0870
   1773 CL         24.5465    9.0795    9.6045 Cl     28  UNL28      -0.0870
   1774 C          23.1515    8.1589    9.0166 C.3    28  UNL28       0.1805
   1775 H          23.2787    7.9889    7.9444 H      28  UNL28       0.0806
   1776 CL         24.6057    8.9505   13.2508 Cl     28  UNL28      -0.0870
   1777 CL         23.1672    6.4449   12.8807 Cl     28  UNL28      -0.0870
   1778 CL         21.6954    8.9115   13.3652 Cl     28  UNL28      -0.0870
   1779 C          23.1333    8.1964   12.6166 C.3    28  UNL28       0.1805
   1780 H          23.0886    8.3812   11.5402 H      28  UNL28       0.0806
   1781 CL         23.2034    6.6247   17.1117 Cl     28  UNL28      -0.0870
   1782 CL         21.6132    8.9915   16.5168 Cl     28  UNL28      -0.0870
   1783 CL         24.5161    9.1851   16.6591 Cl     28  UNL28      -0.0870
   1784 C          23.1451    8.1532   16.2179 C.3    28  UNL28       0.1805
   1785 H          23.2124    7.9299   15.1501 H      28  UNL28       0.0806
   1786 CL         24.6248    8.8761   20.5003 Cl     28  UNL28      -0.0870
   1787 CL         23.0860    6.4434   20.0554 Cl     28  UNL28      -0.0870
   1788 CL         21.7137    8.9665   20.5407 Cl     28  UNL28      -0.0870
   1789 C          23.1371    8.1982   19.8176 C.3    28  UNL28       0.1805
   1790 H          23.1285    8.4002   18.7435 H      28  UNL28       0.0806
   1791 CL         21.6154    9.0049   23.6701 Cl     28  UNL28      -0.0870
   1792 CL         24.5156    9.1801   23.8771 Cl     28  UNL28      -0.0870
   1793 CL         23.1736    6.6359   24.3365 Cl     28  UNL28      -0.0870
   1794 C          23.1477    8.1516   23.4192 C.3    28  UNL28       0.1805
   1795 H          23.2379    7.9121   22.3566 H      28  UNL28       0.0806
   1796 CL         24.5881    8.9542   27.6945 Cl     28  UNL28      -0.0870
   1797 CL         23.1788    6.4431   27.2559 Cl     28  UNL28      -0.0870
   1798 CL         21.6766    8.8896   27.7483 Cl     28  UNL28      -0.0870
   1799 C          23.1355    8.1982   27.0184 C.3    28  UNL28       0.1805
   1800 H          23.1112    8.3995   25.9444 H      28  UNL28       0.0806
   1801 CL         21.6470    9.0544   30.9048 Cl     28  UNL28      -0.0870
   1802 CL         24.5550    9.1327   31.0518 Cl     28  UNL28      -0.0870
   1803 CL         23.1391    6.6329   31.5322 Cl     28  UNL28      -0.0870
   1804 C          23.1445    8.1516   30.6198 C.3    28  UNL28       0.1805
   1805 H          23.2047    7.9129   29.5549 H      28  UNL28       0.0806
   1806 CL         24.5991    8.8871   34.9528 Cl     28  UNL28      -0.0870
   1807 CL         23.0851    6.4449   34.4758 Cl     28  UNL28      -0.0870
   1808 CL         21.6885    8.9697   34.8749 Cl     28  UNL28      -0.0870
   1809 C          23.1417    8.1969   34.2190 C.3    28  UNL28       0.1805
   1810 H          23.1759    8.3859   33.1430 H      28  UNL28       0.0806
   1811 CL         21.6249    8.8778   38.4257 Cl     28  UNL28      -0.0870
   1812 CL         24.4961    9.2489   38.1053 Cl     28  UNL28      -0.0870
   1813 CL         23.4154    6.5852   38.5762 Cl     28  UNL28      -0.0870
   1814 C          23.1274    8.1611   37.8192 C.3    28  UNL28       0.1805
   1815 H          23.0264    8.0115   36.7412 H      28  UNL28       0.0806
   1816 CL         24.6123   13.7898    2.4902 Cl     28  UNL28      -0.0870
   1817 CL         23.0844   11.3339    2.1459 Cl     28  UNL28      -0.0870
   1818 CL         21.7010   13.8773    2.4656 Cl     28  UNL28      -0.0870
   1819 C          23.1395   13.0734    1.8146 C.3    28  UNL28       0.1805
   1820 H          23.1530   13.2170    0.7312 H      28  UNL28       0.0806
   1821 CL         24.5363   13.9986    5.9584 Cl     28  UNL28      -0.0870
   1822 CL         23.2494   11.3857    5.9917 Cl     28  UNL28      -0.0870
   1823 CL         21.6299   13.8067    5.9642 Cl     28  UNL28      -0.0870
   1824 C          23.1379   13.0568    5.4140 C.3    28  UNL28       0.1805
   1825 H          23.1367   13.0436    4.3211 H      28  UNL28       0.0806
   1826 CL         24.6214   13.9054    9.4542 Cl     28  UNL28      -0.0870
   1827 CL         23.0836   11.4566    9.8048 Cl     28  UNL28      -0.0870
   1828 CL         21.7102   13.9998    9.4434 Cl     28  UNL28      -0.0870
   1829 C          23.1380   13.0418    9.0156 C.3    28  UNL28       0.1805
   1830 H          23.1370   12.8876    7.9335 H      28  UNL28       0.0806
   1831 CL         24.5982   13.7985   13.3163 Cl     28  UNL28      -0.0870
   1832 CL         23.1362   11.3234   12.8464 Cl     28  UNL28      -0.0870
   1833 CL         21.6855   13.8025   13.3303 Cl     28  UNL28      -0.0870
   1834 C          23.1375   13.0801   12.6169 C.3    28  UNL28       0.1805
   1835 H          23.1327   13.2868   11.5436 H      28  UNL28       0.0806
   1836 CL         24.6536   13.8108   16.7309 Cl     28  UNL28      -0.0870
   1837 CL         22.9090   11.5039   17.0759 Cl     28  UNL28      -0.0870
   1838 CL         21.7676   14.1175   16.4833 Cl     28  UNL28      -0.0870
   1839 C          23.1454   13.0357   16.2177 C.3    28  UNL28       0.1805
   1840 H          23.2146   12.8234   15.1477 H      28  UNL28       0.0806
   1841 CL         24.5956   13.8271   20.4858 Cl     28  UNL28      -0.0870
   1842 CL         23.1872   11.3221   20.0113 Cl     28  UNL28      -0.0870
   1843 CL         21.6858   13.7498   20.5919 Cl     28  UNL28      -0.0870
   1844 C          23.1333   13.0823   19.8183 C.3    28  UNL28       0.1805
   1845 H          23.0884   13.3100   18.7502 H      28  UNL28       0.0806
   1846 CL         24.6476   13.8038   23.9658 Cl     28  UNL28      -0.0870
   1847 CL         22.8789   11.5113   24.2821 Cl     28  UNL28      -0.0870
   1848 CL         21.7713   14.1277   23.6400 Cl     28  UNL28      -0.0870
   1849 C          23.1482   13.0347   23.4189 C.3    28  UNL28       0.1805
   1850 H          23.2442   12.8138   22.3528 H      28  UNL28       0.0806
   1851 CL         24.6157   13.7585   27.7233 Cl     28  UNL28      -0.0870
   1852 CL         23.1093   11.3211   27.1996 Cl     28  UNL28      -0.0870
   1853 CL         21.7037   13.8084   27.7673 Cl     28  UNL28      -0.0870
   1854 C          23.1368   13.0833   27.0192 C.3    28  UNL28       0.1805
   1855 H          23.1248   13.3200   25.9522 H      28  UNL28       0.0806
   1856 CL         24.6210   13.8925   31.0901 Cl     28  UNL28      -0.0870
   1857 CL         23.0130   11.4964   31.4865 Cl     28  UNL28      -0.0870
   1858 CL         21.7171   14.0429   30.9196 Cl     28  UNL28      -0.0870
   1859 C          23.1436   13.0357   30.6192 C.3    28  UNL28       0.1805
   1860 H          23.1955   12.8238   29.5482 H      28  UNL28       0.0806
   1861 CL         24.6042   13.8189   34.8760 Cl     28  UNL28      -0.0870
   1862 CL         23.1744   11.3222   34.4219 Cl     28  UNL28      -0.0870
   1863 CL         21.6945   13.7643   34.9972 Cl     28  UNL28      -0.0870
   1864 C          23.1329   13.0818   34.2197 C.3    28  UNL28       0.1805
   1865 H          23.0842   13.3042   33.1507 H      28  UNL28       0.0806
   1866 CL         24.6411   13.7808   38.4250 Cl     28  UNL28      -0.0870
   1867 CL         22.9022   11.4470   38.5430 Cl     28  UNL28      -0.0870
   1868 CL         21.7592   14.0964   38.1441 Cl     28  UNL28      -0.0870
   1869 C          23.1478   13.0451   37.8188 C.3    28  UNL28       0.1805
   1870 H          23.2398   12.9219   36.7367 H      28  UNL28       0.0806
   1871 CL         24.5924   18.7575    2.4183 Cl     28  UNL28      -0.0870
   1872 CL         23.2088   16.2123    2.1153 Cl     28  UNL28      -0.0870
   1873 CL         21.6851   18.6541    2.5633 Cl     28  UNL28      -0.0870
   1874 C          23.1318   17.9566    1.8150 C.3    28  UNL28       0.1805
   1875 H          23.0722   18.1175    0.7356 H      28  UNL28       0.0806
   1876 CL         24.6251   18.2864    6.3614 Cl     28  UNL28      -0.0870
   1877 CL         22.9250   16.2571    5.1466 Cl     28  UNL28      -0.0870
   1878 CL         21.7404   18.6757    6.2565 Cl     28  UNL28      -0.0870
   1879 C          23.1489   17.9920    5.4271 C.3    28  UNL28       0.1805
   1880 H          23.2509   18.4868    4.4579 H      28  UNL28       0.0806
   1881 CL         24.5835   18.8963    9.2661 Cl     28  UNL28      -0.0870
   1882 CL         23.2669   16.3670    9.8607 Cl     28  UNL28      -0.0870
   1883 CL         21.6874   18.7960    9.5610 Cl     28  UNL28      -0.0870
   1884 C          23.1273   17.9185    9.0169 C.3    28  UNL28       0.1805
   1885 H          23.0252   17.7202    7.9469 H      28  UNL28       0.0806
   1886 CL         24.6168   18.5817   13.3818 Cl     28  UNL28      -0.0870
   1887 CL         23.0818   16.2021   12.6996 Cl     28  UNL28      -0.0870
   1888 CL         21.7056   18.6760   13.3859 Cl     28  UNL28      -0.0870
   1889 C          23.1389   17.9710   12.6192 C.3    28  UNL28       0.1805
   1890 H          23.1471   18.2674   11.5671 H      28  UNL28       0.0806
   1891 CL         24.5390   18.9659   16.4151 Cl     28  UNL28      -0.0870
   1892 CL         23.3642   16.3824   17.0708 Cl     28  UNL28      -0.0870
   1893 CL         21.6612   18.7297   16.7978 Cl     28  UNL28      -0.0870
   1894 C          23.1249   17.9169   16.2182 C.3    28  UNL28       0.1805
   1895 H          23.0009   17.7032   15.1535 H      28  UNL28       0.0806
   1896 CL         24.6415   18.5106   20.5923 Cl     28  UNL28      -0.0870
   1897 CL         23.0015   16.2067   19.8948 Cl     28  UNL28      -0.0870
   1898 CL         21.7378   18.7397   20.5814 Cl     28  UNL28      -0.0870
   1899 C          23.1410   17.9712   19.8201 C.3    28  UNL28       0.1805
   1900 H          23.1685   18.2699   18.7690 H      28  UNL28       0.0806
   1901 CL         24.5287   18.9775   23.6412 Cl     28  UNL28      -0.0870
   1902 CL         23.3787   16.3684   24.2364 Cl     28  UNL28      -0.0870
   1903 CL         21.6529   18.7044   24.0143 Cl     28  UNL28      -0.0870
   1904 C          23.1253   17.9193   23.4185 C.3    28  UNL28       0.1805
   1905 H          23.0047   17.7286   22.3491 H      28  UNL28       0.0806
   1906 CL         24.6426   18.6120   27.6865 Cl     28  UNL28      -0.0870
   1907 CL         23.0756   16.2037   27.2083 Cl     28  UNL28      -0.0870
   1908 CL         21.7340   18.7215   27.7960 Cl     28  UNL28      -0.0870
   1909 C          23.1347   17.9642   27.0191 C.3    28  UNL28       0.1805
   1910 H          23.1033   18.1967   25.9516 H      28  UNL28       0.0806
   1911 CL         24.5984   18.8736   30.8667 Cl     28  UNL28      -0.0870
   1912 CL         23.2349   16.3750   31.4849 Cl     28  UNL28      -0.0870
   1913 CL         21.6990   18.8260   31.1409 Cl     28  UNL28      -0.0870
   1914 C          23.1277   17.9172   30.6195 C.3    28  UNL28       0.1805
   1915 H          23.0302   17.7062   29.5515 H      28  UNL28       0.0806
   1916 CL         24.6268   18.5503   34.9915 Cl     28  UNL28      -0.0870
   1917 CL         23.0128   16.2059   34.3729 Cl     28  UNL28      -0.0870
   1918 CL         21.7223   18.7586   34.9232 Cl     28  UNL28      -0.0870
   1919 C          23.1426   17.9661   34.2204 C.3    28  UNL28       0.1805
   1920 H          23.1856   18.2171   33.1575 H      28  UNL28       0.0806
   1921 CL         24.5453   18.9495   38.0837 Cl     28  UNL28      -0.0870
   1922 CL         23.3685   16.3227   38.5297 Cl     28  UNL28      -0.0870
   1923 CL         21.6730   18.6910   38.4926 Cl     28  UNL28      -0.0870
   1924 C          23.1230   17.9269   37.8193 C.3    28  UNL28       0.1805
   1925 H          22.9804   17.8080   36.7422 H      28  UNL28       0.0806
   1926 CL         24.6293   23.6768    2.1876 Cl     28  UNL28      -0.0870
   1927 CL         23.0969   21.2463    2.6655 Cl     28  UNL28      -0.0870
   1928 CL         21.7187   23.7767    2.2384 Cl     28  UNL28      -0.0870
   1929 C          23.1354   22.8002    1.8155 C.3    28  UNL28       0.1805
   1930 H          23.1099   22.6049    0.7404 H      28  UNL28       0.0806
   1931 CL         24.5054   23.6846    6.1682 Cl     28  UNL28      -0.0870
   1932 CL         23.2985   21.0918    5.6158 Cl     28  UNL28      -0.0870
   1933 CL         21.6062   23.4123    6.1017 Cl     28  UNL28      -0.0870
   1934 C          23.1384   22.8449    5.4165 C.3    28  UNL28       0.1805
   1935 H          23.1417   23.0713    4.3472 H      28  UNL28       0.0806
   1936 CL         24.6440   23.6590    9.3602 Cl     28  UNL28      -0.0870
   1937 CL         23.0377   21.3115    9.9874 Cl     28  UNL28      -0.0870
   1938 CL         21.7366   23.8318    9.3239 Cl     28  UNL28      -0.0870
   1939 C          23.1377   22.7912    9.0183 C.3    28  UNL28       0.1805
   1940 H          23.1343   22.5114    7.9617 H      28  UNL28       0.0806
   1941 CL         24.5584   23.6257   13.3289 Cl     28  UNL28      -0.0870
   1942 CL         23.2016   21.0892   12.8717 Cl     28  UNL28      -0.0870
   1943 CL         21.6479   23.5163   13.2959 Cl     28  UNL28      -0.0870
   1944 C          23.1386   22.8412   12.6166 C.3    28  UNL28       0.1805
   1945 H          23.1437   23.0325   11.5405 H      28  UNL28       0.0806
   1946 CL         24.6126   23.6762   16.6734 Cl     28  UNL28      -0.0870
   1947 CL         22.9824   21.3190   17.1931 Cl     28  UNL28      -0.0870
   1948 CL         21.7163   23.8195   16.3998 Cl     28  UNL28      -0.0870
   1949 C          23.1471   22.7901   16.2198 C.3    28  UNL28       0.1805
   1950 H          23.2320   22.5000   15.1694 H      28  UNL28       0.0806
   1951 CL         24.5121   23.6936   20.5424 Cl     28  UNL28      -0.0870
   1952 CL         23.3239   21.0931   19.9862 Cl     28  UNL28      -0.0870
   1953 CL         21.6161   23.3827   20.5572 Cl     28  UNL28      -0.0870
   1954 C          23.1347   22.8466   19.8185 C.3    28  UNL28       0.1805
   1955 H          23.1033   23.0889   18.7532 H      28  UNL28       0.0806
   1956 CL         24.6397   23.6155   23.9017 Cl     28  UNL28      -0.0870
   1957 CL         22.9085   21.3234   24.3849 Cl     28  UNL28      -0.0870
   1958 CL         21.7562   23.8752   23.5818 Cl     28  UNL28      -0.0870
   1959 C          23.1476   22.7902   23.4206 C.3    28  UNL28       0.1805
   1960 H          23.2381   22.5006   22.3705 H      28  UNL28       0.0806
   1961 CL         24.5365   23.6412   27.7605 Cl     28  UNL28      -0.0870
   1962 CL         23.2507   21.0874   27.2044 Cl     28  UNL28      -0.0870
   1963 CL         21.6301   23.4510   27.7261 Cl     28  UNL28      -0.0870
   1964 C          23.1378   22.8457   27.0191 C.3    28  UNL28       0.1805
   1965 H          23.1351   23.0796   25.9514 H      28  UNL28       0.0806
   1966 CL         24.6006   23.7403   30.9299 Cl     28  UNL28      -0.0870
   1967 CL         23.1353   21.3134   31.5989 Cl     28  UNL28      -0.0870
   1968 CL         21.6879   23.7559   30.9479 Cl     28  UNL28      -0.0870
   1969 C          23.1372   22.7906   30.6209 C.3    28  UNL28       0.1805
   1970 H          23.1292   22.5047   29.5660 H      28  UNL28       0.0806
   1971 CL         24.4882   23.7231   34.9545 Cl     28  UNL28      -0.0870
   1972 CL         23.3528   21.0972   34.4073 Cl     28  UNL28      -0.0870
   1973 CL         21.5980   23.3621   34.9320 Cl     28  UNL28      -0.0870
   1974 C          23.1359   22.8455   34.2199 C.3    28  UNL28       0.1805
   1975 H          23.1153   23.0770   33.1518 H      28  UNL28       0.0806
   1976 CL         24.6247   23.6684   38.2413 Cl     28  UNL28      -0.0870
   1977 CL         22.9950   21.3193   38.7981 Cl     28  UNL28      -0.0870
   1978 CL         21.7235   23.8268   38.0364 Cl     28  UNL28      -0.0870
   1979 C          23.1443   22.7902   37.8220 C.3    28  UNL28       0.1805
   1980 H          23.2028   22.5003   36.7697 H      28  UNL28       0.0806
   1981 CL         24.5608   28.6841    2.1163 Cl     28  UNL28      -0.0870
   1982 CL         23.2812   26.1192    2.6340 Cl     28  UNL28      -0.0870
   1983 CL         21.6613   28.5224    2.3418 Cl     28  UNL28      -0.0870
   1984 C          23.1303   27.6831    1.8155 C.3    28  UNL28       0.1805
   1985 H          23.0567   27.5029    0.7400 H      28  UNL28       0.0806
   1986 CL         24.6587   28.2524    6.1686 Cl     28  UNL28      -0.0870
   1987 CL         22.8872   25.9896    5.6934 Cl     28  UNL28      -0.0870
   1988 CL         21.7780   28.6614    6.0337 Cl     28  UNL28      -0.0870
   1989 C          23.1459   27.7201    5.4157 C.3    28  UNL28       0.1805
   1990 H          23.2203   27.8882    4.3382 H      28  UNL28       0.0806
   1991 CL         24.5553   28.6959    9.2950 Cl     28  UNL28      -0.0870
   1992 CL         23.2971   26.1288    9.8526 Cl     28  UNL28      -0.0870
   1993 CL         21.6587   28.5173    9.5436 Cl     28  UNL28      -0.0870
   1994 C          23.1296   27.6817    9.0166 C.3    28  UNL28       0.1805
   1995 H          23.0495   27.4881    7.9439 H      28  UNL28       0.0806
   1996 CL         24.5769   28.4256   13.3860 Cl     28  UNL28      -0.0870
   1997 CL         23.0874   25.9718   12.8915 Cl     28  UNL28      -0.0870
   1998 CL         21.6698   28.4952   13.2195 Cl     28  UNL28      -0.0870
   1999 C          23.1451   27.7210   12.6166 C.3    28  UNL28       0.1805
   2000 H          23.2110   27.8981   11.5400 H      28  UNL28       0.0806
   2001 CL         24.6687   28.5246   16.3938 Cl     28  UNL28      -0.0870
   2002 CL         23.1498   26.1398   17.0937 Cl     28  UNL28      -0.0870
   2003 CL         21.7884   28.6972   16.7916 Cl     28  UNL28      -0.0870
   2004 C          23.1212   27.6800   16.2187 C.3    28  UNL28       0.1805
   2005 H          22.9622   27.4701   15.1579 H      28  UNL28       0.0806
   2006 CL         24.6388   28.2921   20.5817 Cl     28  UNL28      -0.0870
   2007 CL         22.9658   25.9745   20.0215 Cl     28  UNL28      -0.0870
   2008 CL         21.7415   28.5762   20.4877 Cl     28  UNL28      -0.0870
   2009 C          23.1440   27.7254   19.8181 C.3    28  UNL28       0.1805
   2010 H          23.2002   27.9435   18.7486 H      28  UNL28       0.0806
   2011 CL         24.5923   28.6486   23.6454 Cl     28  UNL28      -0.0870
   2012 CL         23.2534   26.1451   24.2966 Cl     28  UNL28      -0.0870
   2013 CL         21.6957   28.5812   23.9449 Cl     28  UNL28      -0.0870
   2014 C          23.1269   27.6788   23.4190 C.3    28  UNL28       0.1805
   2015 H          23.0219   27.4580   22.3537 H      28  UNL28       0.0806
   2016 CL         24.6218   28.3240   27.7919 Cl     28  UNL28      -0.0870
   2017 CL         22.9918   25.9733   27.2425 Cl     28  UNL28      -0.0870
   2018 CL         21.7216   28.5610   27.6613 Cl     28  UNL28      -0.0870
   2019 C          23.1450   27.7240   27.0187 C.3    28  UNL28       0.1805
   2020 H          23.2100   27.9294   25.9471 H      28  UNL28       0.0806
   2021 CL         24.6227   28.5889   30.9136 Cl     28  UNL28      -0.0870
   2022 CL         23.1609   26.1354   31.4858 Cl     28  UNL28      -0.0870
   2023 CL         21.7161   28.6345   31.0965 Cl     28  UNL28      -0.0870
   2024 C          23.1306   27.6802   30.6192 C.3    28  UNL28       0.1805
   2025 H          23.0600   27.4727   29.5484 H      28  UNL28       0.0806
   2026 CL         24.6499   28.2337   35.0076 Cl     28  UNL28      -0.0870
   2027 CL         22.8730   25.9893   34.4692 Cl     28  UNL28      -0.0870
   2028 CL         21.7750   28.6639   34.8237 Cl     28  UNL28      -0.0870
   2029 C          23.1482   27.7215   34.2193 C.3    28  UNL28       0.1805
   2030 H          23.2441   27.9032   33.1458 H      28  UNL28       0.0806
   2031 CL         24.6231   28.5952   38.0761 Cl     28  UNL28      -0.0870
   2032 CL         23.1943   26.1264   38.6659 Cl     28  UNL28      -0.0870
   2033 CL         21.7239   28.6217   38.3557 Cl     28  UNL28      -0.0870
   2034 C          23.1269   27.6816   37.8200 C.3    28  UNL28       0.1805
   2035 H          23.0220   27.4867   36.7497 H      28  UNL28       0.0806
   2036 CL         21.7996   33.6776    2.1165 Cl     28  UNL28      -0.0870
   2037 CL         24.6828   33.2988    2.2838 Cl     28  UNL28      -0.0870
   2038 CL         22.8910   31.0377    2.6860 Cl     28  UNL28      -0.0870
   2039 C          23.1417   32.5607    1.8160 C.3    28  UNL28       0.1805
   2040 H          23.1752   32.3437    0.7453 H      28  UNL28       0.0806
   2041 CL         21.5505   32.9425    6.1413 Cl     28  UNL28      -0.0870
   2042 CL         24.3500   33.7355    6.0069 Cl     28  UNL28      -0.0870
   2043 CL         23.6179   30.9275    5.7541 Cl     28  UNL28      -0.0870
   2044 C          23.1290   32.5965    5.4151 C.3    28  UNL28       0.1805
   2045 H          23.0429   32.7164    4.3321 H      28  UNL28       0.0806
   2046 CL         21.8236   33.7205    9.1833 Cl     28  UNL28      -0.0870
   2047 CL         24.6692   33.2598    9.6009 Cl     28  UNL28      -0.0870
   2048 CL         22.7799   31.0619    9.8914 Cl     28  UNL28      -0.0870
   2049 C          23.1505   32.5583    9.0179 C.3    28  UNL28       0.1805
   2050 H          23.2670   32.3180    7.9581 H      28  UNL28       0.0806
   2051 CL         21.7443   33.3109   13.4735 Cl     28  UNL28      -0.0870
   2052 CL         24.6474   33.2826   13.2373 Cl     28  UNL28      -0.0870
   2053 CL         23.1238   30.8453   12.7648 Cl     28  UNL28      -0.0870
   2054 C          23.1292   32.6111   12.6185 C.3    28  UNL28       0.1805
   2055 H          23.0455   32.8687   11.5595 H      28  UNL28       0.0806
   2056 CL         21.5371   32.8582   16.9512 Cl     28  UNL28      -0.0870
   2057 CL         24.0830   34.0335   16.1630 Cl     28  UNL28      -0.0870
   2058 CL         23.9820   31.2841   17.1197 Cl     28  UNL28      -0.0870
   2059 C          23.1216   32.5466   16.2226 C.3    28  UNL28       0.1805
   2060 H          22.9664   32.1961   15.1990 H      28  UNL28       0.0806
   2061 CL         21.5958   33.1422   20.5083 Cl     28  UNL28      -0.0870
   2062 CL         24.4898   33.4647   20.5793 Cl     28  UNL28      -0.0870
   2063 CL         23.3287   30.8568   20.0001 Cl     28  UNL28      -0.0870
   2064 C          23.1381   32.6089   19.8184 C.3    28  UNL28       0.1805
   2065 H          23.1378   32.8460   18.7514 H      28  UNL28       0.0806
   2066 CL         21.6286   33.4250   23.7239 Cl     28  UNL28      -0.0870
   2067 CL         24.5359   33.5768   23.8199 Cl     28  UNL28      -0.0870
   2068 CL         23.1915   31.0459   24.3417 Cl     28  UNL28      -0.0870
   2069 C          23.1432   32.5578   23.4191 C.3    28  UNL28       0.1805
   2070 H          23.1910   32.3130   22.3549 H      28  UNL28       0.0806
   2071 CL         21.5989   33.1672   27.6922 Cl     28  UNL28      -0.0870
   2072 CL         24.4928   33.4968   27.7273 Cl     28  UNL28      -0.0870
   2073 CL         23.3322   30.8624   27.2829 Cl     28  UNL28      -0.0870
   2074 C          23.1372   32.6034   27.0181 C.3    28  UNL28       0.1805
   2075 H          23.1291   32.7886   25.9410 H      28  UNL28       0.0806
   2076 CL         21.6467   33.4313   31.0161 Cl     28  UNL28      -0.0870
   2077 CL         24.5560   33.5629   30.9646 Cl     28  UNL28      -0.0870
   2078 CL         23.2220   31.0322   31.5132 Cl     28  UNL28      -0.0870
   2079 C          23.1372   32.5597   30.6194 C.3    28  UNL28       0.1805
   2080 H          23.1284   32.3325   29.5503 H      28  UNL28       0.0806
   2081 CL         21.4879   32.8629   34.8042 Cl     28  UNL28      -0.0870
   2082 CL         24.2444   33.7991   34.9004 Cl     28  UNL28      -0.0870
   2083 CL         23.6811   30.9557   34.6127 Cl     28  UNL28      -0.0870
   2084 C          23.1381   32.5954   34.2178 C.3    28  UNL28       0.1805
   2085 H          23.1387   32.7053   33.1304 H      28  UNL28       0.0806
   2086 CL         21.6694   33.4608   38.2443 Cl     28  UNL28      -0.0870
   2087 CL         24.5786   33.5385   38.1237 Cl     28  UNL28      -0.0870
   2088 CL         23.2121   31.0374   38.7253 Cl     28  UNL28      -0.0870
   2089 C          23.1341   32.5588   37.8204 C.3    28  UNL28       0.1805
   2090 H          23.0961   32.3229   36.7538 H      28  UNL28       0.0806
@<TRIPOS>BOND
     1     1     4    1
     2     2     4    1
     3     3     4    1
     4     4     5    1
     5     6     9    1
     6     7     9    1
     7     8     9    1
     8     9    10    1
     9    11    14    1
    10    12    14    1
    11    13    14    1
    12    14    15    1
    13    16    19    1
    14    17    19    1
    15    18    19    1
    16    19    20    1
    17    21    24    1
    18    22    24    1
    19    23    24    1
    20    24    25    1
    21    26    29    1
    22    27    29    1
    23    28    29    1
    24    29    30    1
    25    31    34    1
    26    32    34    1
    27    33    34    1
    28    34    35    1
    29    36    39    1
    30    37    39    1
    31    38    39    1
    32    39    40    1
    33    41    44    1
    34    42    44    1
    35    43    44    1
    36    44    45    1
    37    46    49    1
    38    47    49    1
    39    48    49    1
    40    49    50    1
    41    51    54    1
    42    52    54    1
    43    53    54    1
    44    54    55    1
    45    56    59    1
    46    57    59    1
    47    58    59    1
    48    59    60    1
    49    61    64    1
    50    62    64    1
    51    63    64    1
    52    64    65    1
    53    66    69    1
    54    67    69    1
    55    68    69    1
    56    69    70    1
    57    71    74    1
    58    72    74    1
    59    73    74    1
    60    74    75    1
    61    76    79    1
    62    77    79    1
    63    78    79    1
    64    79    80    1
    65    81    84    1
    66    82    84    1
    67    83    84    1
    68    84    85    1
    69    86    89    1
    70    87    89    1
    71    88    89    1
    72    89    90    1
    73    91    94    1
    74    92    94    1
    75    93    94    1
    76    94    95    1
    77    96    99    1
    78    97    99    1
    79    98    99    1
    80    99   100    1
    81   101   104    1
    82   102   104    1
    83   103   104    1
    84   104   105    1
    85   106   109    1
    86   107   109    1
    87   108   109    1
    88   109   110    1
    89   111   114    1
    90   112   114    1
    91   113   114    1
    92   114   115    1
    93   116   119    1
    94   117   119    1
    95   118   119    1
    96   119   120    1
    97   121   124    1
    98   122   124    1
    99   123   124    1
   100   124   125    1
   101   126   129    1
   102   127   129    1
   103   128   129    1
   104   129   130    1
   105   131   134    1
   106   132   134    1
   107   133   134    1
   108   134   135    1
   109   136   139    1
   110   137   139    1
   111   138   139    1
   112   139   140    1
   113   141   144    1
   114   142   144    1
   115   143   144    1
   116   144   145    1
   117   146   149    1
   118   147   149    1
   119   148   149    1
   120   149   150    1
   121   151   154    1
   122   152   154    1
   123   153   154    1
   124   154   155    1
   125   156   159    1
   126   157   159    1
   127   158   159    1
   128   159   160    1
   129   161   164    1
   130   162   164    1
   131   163   164    1
   132   164   165    1
   133   166   169    1
   134   167   169    1
   135   168   169    1
   136   169   170    1
   137   171   174    1
   138   172   174    1
   139   173   174    1
   140   174   175    1
   141   176   179    1
   142   177   179    1
   143   178   179    1
   144   179   180    1
   145   181   184    1
   146   182   184    1
   147   183   184    1
   148   184   185    1
   149   186   189    1
   150   187   189    1
   151   188   189    1
   152   189   190    1
   153   191   194    1
   154   192   194    1
   155   193   194    1
   156   194   195    1
   157   196   199    1
   158   197   199    1
   159   198   199    1
   160   199   200    1
   161   201   204    1
   162   202   204    1
   163   203   204    1
   164   204   205    1
   165   206   209    1
   166   207   209    1
   167   208   209    1
   168   209   210    1
   169   211   214    1
   170   212   214    1
   171   213   214    1
   172   214   215    1
   173   216   219    1
   174   217   219    1
   175   218   219    1
   176   219   220    1
   177   221   224    1
   178   222   224    1
   179   223   224    1
   180   224   225    1
   181   226   229    1
   182   227   229    1
   183   228   229    1
   184   229   230    1
   185   231   234    1
   186   232   234    1
   187   233   234    1
   188   234   235    1
   189   236   239    1
   190   237   239    1
   191   238   239    1
   192   239   240    1
   193   241   244    1
   194   242   244    1
   195   243   244    1
   196   244   245    1
   197   246   249    1
   198   247   249    1
   199   248   249    1
   200   249   250    1
   201   251   254    1
   202   252   254    1
   203   253   254    1
   204   254   255    1
   205   256   259    1
   206   257   259    1
   207   258   259    1
   208   259   260    1
   209   261   264    1
   210   262   264    1
   211   263   264    1
   212   264   265    1
   213   266   269    1
   214   267   269    1
   215   268   269    1
   216   269   270    1
   217   271   274    1
   218   272   274    1
   219   273   274    1
   220   274   275    1
   221   276   279    1
   222   277   279    1
   223   278   279    1
   224   279   280    1
   225   281   284    1
   226   282   284    1
   227   283   284    1
   228   284   285    1
   229   286   289    1
   230   287   289    1
   231   288   289    1
   232   289   290    1
   233   291   294    1
   234   292   294    1
   235   293   294    1
   236   294   295    1
   237   296   299    1
   238   297   299    1
   239   298   299    1
   240   299   300    1
   241   301   304    1
   242   302   304    1
   243   303   304    1
   244   304   305    1
   245   306   309    1
   246   307   309    1
   247   308   309    1
   248   309   310    1
   249   311   314    1
   250   312   314    1
   251   313   314    1
   252   314   315    1
   253   316   319    1
   254   317   319    1
   255   318   319    1
   256   319   320    1
   257   321   324    1
   258   322   324    1
   259   323   324    1
   260   324   325    1
   261   326   329    1
   262   327   329    1
   263   328   329    1
   264   329   330    1
   265   331   334    1
   266   332   334    1
   267   333   334    1
   268   334   335    1
   269   336   339    1
   270   337   339    1
   271   338   339    1
   272   339   340    1
   273   341   344    1
   274   342   344    1
   275   343   344    1
   276   344   345    1
   277   346   349    1
   278   347   349    1
   279   348   349    1
   280   349   350    1
   281   351   354    1
   282   352   354    1
   283   353   354    1
   284   354   355    1
   285   356   359    1
   286   357   359    1
   287   358   359    1
   288   359   360    1
   289   361   364    1
   290   362   364    1
   291   363   364    1
   292   364   365    1
   293   366   369    1
   294   367   369    1
   295   368   369    1
   296   369   370    1
   297   371   374    1
   298   372   374    1
   299   373   374    1
   300   374   375    1
   301   376   379    1
   302   377   379    1
   303   378   379    1
   304   379   380    1
   305   381   384    1
   306   382   384    1
   307   383   384    1
   308   384   385    1
   309   386   389    1
   310   387   389    1
   311   388   389    1
   312   389   390    1
   313   391   394    1
   314   392   394    1
   315   393   394    1
   316   394   395    1
   317   396   399    1
   318   397   399    1
   319   398   399    1
   320   399   400    1
   321   401   404    1
   322   402   404    1
   323   403   404    1
   324   404   405    1
   325   406   409    1
   326   407   409    1
   327   408   409    1
   328   409   410    1
   329   411   414    1
   330   412   414    1
   331   413   414    1
   332   414   415    1
   333   416   419    1
   334   417   419    1
   335   418   419    1
   336   419   420    1
   337   421   424    1
   338   422   424    1
   339   423   424    1
   340   424   425    1
   341   426   429    1
   342   427   429    1
   343   428   429    1
   344   429   430    1
   345   431   434    1
   346   432   434    1
   347   433   434    1
   348   434   435    1
   349   436   439    1
   350   437   439    1
   351   438   439    1
   352   439   440    1
   353   441   444    1
   354   442   444    1
   355   443   444    1
   356   444   445    1
   357   446   449    1
   358   447   449    1
   359   448   449    1
   360   449   450    1
   361   451   454    1
   362   452   454    1
   363   453   454    1
   364   454   455    1
   365   456   459    1
   366   457   459    1
   367   458   459    1
   368   459   460    1
   369   461   464    1
   370   462   464    1
   371   463   464    1
   372   464   465    1
   373   466   469    1
   374   467   469    1
   375   468   469    1
   376   469   470    1
   377   471   474    1
   378   472   474    1
   379   473   474    1
   380   474   475    1
   381   476   479    1
   382   477   479    1
   383   478   479    1
   384   479   480    1
   385   481   484    1
   386   482   484    1
   387   483   484    1
   388   484   485    1
   389   486   489    1
   390   487   489    1
   391   488   489    1
   392   489   490    1
   393   491   494    1
   394   492   494    1
   395   493   494    1
   396   494   495    1
   397   496   499    1
   398   497   499    1
   399   498   499    1
   400   499   500    1
   401   501   504    1
   402   502   504    1
   403   503   504    1
   404   504   505    1
   405   506   509    1
   406   507   509    1
   407   508   509    1
   408   509   510    1
   409   511   514    1
   410   512   514    1
   411   513   514    1
   412   514   515    1
   413   516   519    1
   414   517   519    1
   415   518   519    1
   416   519   520    1
   417   521   524    1
   418   522   524    1
   419   523   524    1
   420   524   525    1
   421   526   529    1
   422   527   529    1
   423   528   529    1
   424   529   530    1
   425   531   534    1
   426   532   534    1
   427   533   534    1
   428   534   535    1
   429   536   539    1
   430   537   539    1
   431   538   539    1
   432   539   540    1
   433   541   544    1
   434   542   544    1
   435   543   544    1
   436   544   545    1
   437   546   549    1
   438   547   549    1
   439   548   549    1
   440   549   550    1
   441   551   554    1
   442   552   554    1
   443   553   554    1
   444   554   555    1
   445   556   559    1
   446   557   559    1
   447   558   559    1
   448   559   560    1
   449   561   564    1
   450   562   564    1
   451   563   564    1
   452   564   565    1
   453   566   569    1
   454   567   569    1
   455   568   569    1
   456   569   570    1
   457   571   574    1
   458   572   574    1
   459   573   574    1
   460   574   575    1
   461   576   579    1
   462   577   579    1
   463   578   579    1
   464   579   580    1
   465   581   584    1
   466   582   584    1
   467   583   584    1
   468   584   585    1
   469   586   589    1
   470   587   589    1
   471   588   589    1
   472   589   590    1
   473   591   594    1
   474   592   594    1
   475   593   594    1
   476   594   595    1
   477   596   599    1
   478   597   599    1
   479   598   599    1
   480   599   600    1
   481   601   604    1
   482   602   604    1
   483   603   604    1
   484   604   605    1
   485   606   609    1
   486   607   609    1
   487   608   609    1
   488   609   610    1
   489   611   614    1
   490   612   614    1
   491   613   614    1
   492   614   615    1
   493   616   619    1
   494   617   619    1
   495   618   619    1
   496   619   620    1
   497   621   624    1
   498   622   624    1
   499   623   624    1
   500   624   625    1
   501   626   629    1
   502   627   629    1
   503   628   629    1
   504   629   630    1
   505   631   634    1
   506   632   634    1
   507   633   634    1
   508   634   635    1
   509   636   639    1
   510   637   639    1
   511   638   639    1
   512   639   640    1
   513   641   644    1
   514   642   644    1
   515   643   644    1
   516   644   645    1
   517   646   649    1
   518   647   649    1
   519   648   649    1
   520   649   650    1
   521   651   654    1
   522   652   654    1
   523   653   654    1
   524   654   655    1
   525   656   659    1
   526   657   659    1
   527   658   659    1
   528   659   660    1
   529   661   664    1
   530   662   664    1
   531   663   664    1
   532   664   665    1
   533   666   669    1
   534   667   669    1
   535   668   669    1
   536   669   670    1
   537   671   674    1
   538   672   674    1
   539   673   674    1
   540   674   675    1
   541   676   679    1
   542   677   679    1
   543   678   679    1
   544   679   680    1
   545   681   684    1
   546   682   684    1
   547   683   684    1
   548   684   685    1
   549   686   689    1
   550   687   689    1
   551   688   689    1
   552   689   690    1
   553   691   694    1
   554   692   694    1
   555   693   694    1
   556   694   695    1
   557   696   699    1
   558   697   699    1
   559   698   699    1
   560   699   700    1
   561   701   704    1
   562   702   704    1
   563   703   704    1
   564   704   705    1
   565   706   709    1
   566   707   709    1
   567   708   709    1
   568   709   710    1
   569   711   714    1
   570   712   714    1
   571   713   714    1
   572   714   715    1
   573   716   719    1
   574   717   719    1
   575   718   719    1
   576   719   720    1
   577   721   724    1
   578   722   724    1
   579   723   724    1
   580   724   725    1
   581   726   729    1
   582   727   729    1
   583   728   729    1
   584   729   730    1
   585   731   734    1
   586   732   734    1
   587   733   734    1
   588   734   735    1
   589   736   739    1
   590   737   739    1
   591   738   739    1
   592   739   740    1
   593   741   744    1
   594   742   744    1
   595   743   744    1
   596   744   745    1
   597   746   749    1
   598   747   749    1
   599   748   749    1
   600   749   750    1
   601   751   754    1
   602   752   754    1
   603   753   754    1
   604   754   755    1
   605   756   759    1
   606   757   759    1
   607   758   759    1
   608   759   760    1
   609   761   764    1
   610   762   764    1
   611   763   764    1
   612   764   765    1
   613   766   769    1
   614   767   769    1
   615   768   769    1
   616   769   770    1
   617   771   774    1
   618   772   774    1
   619   773   774    1
   620   774   775    1
   621   776   779    1
   622   777   779    1
   623   778   779    1
   624   779   780    1
   625   781   784    1
   626   782   784    1
   627   783   784    1
   628   784   785    1
   629   786   789    1
   630   787   789    1
   631   788   789    1
   632   789   790    1
   633   791   794    1
   634   792   794    1
   635   793   794    1
   636   794   795    1
   637   796   799    1
   638   797   799    1
   639   798   799    1
   640   799   800    1
   641   801   804    1
   642   802   804    1
   643   803   804    1
   644   804   805    1
   645   806   809    1
   646   807   809    1
   647   808   809    1
   648   809   810    1
   649   811   814    1
   650   812   814    1
   651   813   814    1
   652   814   815    1
   653   816   819    1
   654   817   819    1
   655   818   819    1
   656   819   820    1
   657   821   824    1
   658   822   824    1
   659   823   824    1
   660   824   825    1
   661   826   829    1
   662   827   829    1
   663   828   829    1
   664   829   830    1
   665   831   834    1
   666   832   834    1
   667   833   834    1
   668   834   835    1
   669   836   839    1
   670   837   839    1
   671   838   839    1
   672   839   840    1
   673   841   844    1
   674   842   844    1
   675   843   844    1
   676   844   845    1
   677   846   849    1
   678   847   849    1
   679   848   849    1
   680   849   850    1
   681   851   854    1
   682   852   854    1
   683   853   854    1
   684   854   855    1
   685   856   859    1
   686   857   859    1
   687   858   859    1
   688   859   860    1
   689   861   864    1
   690   862   864    1
   691   863   864    1
   692   864   865    1
   693   866   869    1
   694   867   869    1
   695   868   869    1
   696   869   870    1
   697   871   874    1
   698   872   874    1
   699   873   874    1
   700   874   875    1
   701   876   879    1
   702   877   879    1
   703   878   879    1
   704   879   880    1
   705   881   884    1
   706   882   884    1
   707   883   884    1
   708   884   885    1
   709   886   889    1
   710   887   889    1
   711   888   889    1
   712   889   890    1
   713   891   894    1
   714   892   894    1
   715   893   894    1
   716   894   895    1
   717   896   899    1
   718   897   899    1
   719   898   899    1
   720   899   900    1
   721   901   904    1
   722   902   904    1
   723   903   904    1
   724   904   905    1
   725   906   909    1
   726   907   909    1
   727   908   909    1
   728   909   910    1
   729   911   914    1
   730   912   914    1
   731   913   914    1
   732   914   915    1
   733   916   919    1
   734   917   919    1
   735   918   919    1
   736   919   920    1
   737   921   924    1
   738   922   924    1
   739   923   924    1
   740   924   925    1
   741   926   929    1
   742   927   929    1
   743   928   929    1
   744   929   930    1
   745   931   934    1
   746   932   934    1
   747   933   934    1
   748   934   935    1
   749   936   939    1
   750   937   939    1
   751   938   939    1
   752   939   940    1
   753   941   944    1
   754   942   944    1
   755   943   944    1
   756   944   945    1
   757   946   949    1
   758   947   949    1
   759   948   949    1
   760   949   950    1
   761   951   954    1
   762   952   954    1
   763   953   954    1
   764   954   955    1
   765   956   959    1
   766   957   959    1
   767   958   959    1
   768   959   960    1
   769   961   964    1
   770   962   964    1
   771   963   964    1
   772   964   965    1
   773   966   969    1
   774   967   969    1
   775   968   969    1
   776   969   970    1
   777   971   974    1
   778   972   974    1
   779   973   974    1
   780   974   975    1
   781   976   979    1
   782   977   979    1
   783   978   979    1
   784   979   980    1
   785   981   984    1
   786   982   984    1
   787   983   984    1
   788   984   985    1
   789   986   989    1
   790   987   989    1
   791   988   989    1
   792   989   990    1
   793   991   994    1
   794   992   994    1
   795   993   994    1
   796   994   995    1
   797   996   999    1
   798   997   999    1
   799   998   999    1
   800   999  1000    1
   801  1001  1004    1
   802  1002  1004    1
   803  1003  1004    1
   804  1004  1005    1
   805  1006  1009    1
   806  1007  1009    1
   807  1008  1009    1
   808  1009  1010    1
   809  1011  1014    1
   810  1012  1014    1
   811  1013  1014    1
   812  1014  1015    1
   813  1016  1019    1
   814  1017  1019    1
   815  1018  1019    1
   816  1019  1020    1
   817  1021  1024    1
   818  1022  1024    1
   819  1023  1024    1
   820  1024  1025    1
   821  1026  1029    1
   822  1027  1029    1
   823  1028  1029    1
   824  1029  1030    1
   825  1031  1034    1
   826  1032  1034    1
   827  1033  1034    1
   828  1034  1035    1
   829  1036  1039    1
   830  1037  1039    1
   831  1038  1039    1
   832  1039  1040    1
   833  1041  1044    1
   834  1042  1044    1
   835  1043  1044    1
   836  1044  1045    1
   837  1046  1049    1
   838  1047  1049    1
   839  1048  1049    1
   840  1049  1050    1
   841  1051  1054    1
   842  1052  1054    1
   843  1053  1054    1
   844  1054  1055    1
   845  1056  1059    1
   846  1057  1059    1
   847  1058  1059    1
   848  1059  1060    1
   849  1061  1064    1
   850  1062  1064    1
   851  1063  1064    1
   852  1064  1065    1
   853  1066  1069    1
   854  1067  1069    1
   855  1068  1069    1
   856  1069  1070    1
   857  1071  1074    1
   858  1072  1074    1
   859  1073  1074    1
   860  1074  1075    1
   861  1076  1079    1
   862  1077  1079    1
   863  1078  1079    1
   864  1079  1080    1
   865  1081  1084    1
   866  1082  1084    1
   867  1083  1084    1
   868  1084  1085    1
   869  1086  1089    1
   870  1087  1089    1
   871  1088  1089    1
   872  1089  1090    1
   873  1091  1094    1
   874  1092  1094    1
   875  1093  1094    1
   876  1094  1095    1
   877  1096  1099    1
   878  1097  1099    1
   879  1098  1099    1
   880  1099  1100    1
   881  1101  1104    1
   882  1102  1104    1
   883  1103  1104    1
   884  1104  1105    1
   885  1106  1109    1
   886  1107  1109    1
   887  1108  1109    1
   888  1109  1110    1
   889  1111  1114    1
   890  1112  1114    1
   891  1113  1114    1
   892  1114  1115    1
   893  1116  1119    1
   894  1117  1119    1
   895  1118  1119    1
   896  1119  1120    1
   897  1121  1124    1
   898  1122  1124    1
   899  1123  1124    1
   900  1124  1125    1
   901  1126  1129    1
   902  1127  1129    1
   903  1128  1129    1
   904  1129  1130    1
   905  1131  1134    1
   906  1132  1134    1
   907  1133  1134    1
   908  1134  1135    1
   909  1136  1139    1
   910  1137  1139    1
   911  1138  1139    1
   912  1139  1140    1
   913  1141  1144    1
   914  1142  1144    1
   915  1143  1144    1
   916  1144  1145    1
   917  1146  1149    1
   918  1147  1149    1
   919  1148  1149    1
   920  1149  1150    1
   921  1151  1154    1
   922  1152  1154    1
   923  1153  1154    1
   924  1154  1155    1
   925  1156  1159    1
   926  1157  1159    1
   927  1158  1159    1
   928  1159  1160    1
   929  1161  1164    1
   930  1162  1164    1
   931  1163  1164    1
   932  1164  1165    1
   933  1166  1169    1
   934  1167  1169    1
   935  1168  1169    1
   936  1169  1170    1
   937  1171  1174    1
   938  1172  1174    1
   939  1173  1174    1
   940  1174  1175    1
   941  1176  1179    1
   942  1177  1179    1
   943  1178  1179    1
   944  1179  1180    1
   945  1181  1184    1
   946  1182  1184    1
   947  1183  1184    1
   948  1184  1185    1
   949  1186  1189    1
   950  1187  1189    1
   951  1188  1189    1
   952  1189  1190    1
   953  1191  1194    1
   954  1192  1194    1
   955  1193  1194    1
   956  1194  1195    1
   957  1196  1199    1
   958  1197  1199    1
   959  1198  1199    1
   960  1199  1200    1
   961  1201  1204    1
   962  1202  1204    1
   963  1203  1204    1
   964  1204  1205    1
   965  1206  1209    1
   966  1207  1209    1
   967  1208  1209    1
   968  1209  1210    1
   969  1211  1214    1
   970  1212  1214    1
   971  1213  1214    1
   972  1214  1215    1
   973  1216  1219    1
   974  1217  1219    1
   975  1218  1219    1
   976  1219  1220    1
   977  1221  1224    1
   978  1222  1224    1
   979  1223  1224    1
   980  1224  1225    1
   981  1226  1229    1
   982  1227  1229    1
   983  1228  1229    1
   984  1229  1230    1
   985  1231  1234    1
   986  1232  1234    1
   987  1233  1234    1
   988  1234  1235    1
   989  1236  1239    1
   990  1237  1239    1
   991  1238  1239    1
   992  1239  1240    1
   993  1241  1244    1
   994  1242  1244    1
   995  1243  1244    1
   996  1244  1245    1
   997  1246  1249    1
   998  1247  1249    1
   999  1248  1249    1
  1000  1249  1250    1
  1001  1251  1254    1
  1002  1252  1254    1
  1003  1253  1254    1
  1004  1254  1255    1
  1005  1256  1259    1
  1006  1257  1259    1
  1007  1258  1259    1
  1008  1259  1260    1
  1009  1261  1264    1
  1010  1262  1264    1
  1011  1263  1264    1
  1012  1264  1265    1
  1013  1266  1269    1
  1014  1267  1269    1
  1015  1268  1269    1
  1016  1269  1270    1
  1017  1271  1274    1
  1018  1272  1274    1
  1019  1273  1274    1
  1020  1274  1275    1
  1021  1276  1279    1
  1022  1277  1279    1
  1023  1278  1279    1
  1024  1279  1280    1
  1025  1281  1284    1
  1026  1282  1284    1
  1027  1283  1284    1
  1028  1284  1285    1
  1029  1286  1289    1
  1030  1287  1289    1
  1031  1288  1289    1
  1032  1289  1290    1
  1033  1291  1294    1
  1034  1292  1294    1
  1035  1293  1294    1
  1036  1294  1295    1
  1037  1296  1299    1
  1038  1297  1299    1
  1039  1298  1299    1
  1040  1299  1300    1
  1041  1301  1304    1
  1042  1302  1304    1
  1043  1303  1304    1
  1044  1304  1305    1
  1045  1306  1309    1
  1046  1307  1309    1
  1047  1308  1309    1
  1048  1309  1310    1
  1049  1311  1314    1
  1050  1312  1314    1
  1051  1313  1314    1
  1052  1314  1315    1
  1053  1316  1319    1
  1054  1317  1319    1
  1055  1318  1319    1
  1056  1319  1320    1
  1057  1321  1324    1
  1058  1322  1324    1
  1059  1323  1324    1
  1060  1324  1325    1
  1061  1326  1329    1
  1062  1327  1329    1
  1063  1328  1329    1
  1064  1329  1330    1
  1065  1331  1334    1
  1066  1332  1334    1
  1067  1333  1334    1
  1068  1334  1335    1
  1069  1336  1339    1
  1070  1337  1339    1
  1071  1338  1339    1
  1072  1339  1340    1
  1073  1341  1344    1
  1074  1342  1344    1
  1075  1343  1344    1
  1076  1344  1345    1
  1077  1346  1349    1
  1078  1347  1349    1
  1079  1348  1349    1
  1080  1349  1350    1
  1081  1351  1354    1
  1082  1352  1354    1
  1083  1353  1354    1
  1084  1354  1355    1
  1085  1356  1359    1
  1086  1357  1359    1
  1087  1358  1359    1
  1088  1359  1360    1
  1089  1361  1364    1
  1090  1362  1364    1
  1091  1363  1364    1
  1092  1364  1365    1
  1093  1366  1369    1
  1094  1367  1369    1
  1095  1368  1369    1
  1096  1369  1370    1
  1097  1371  1374    1
  1098  1372  1374    1
  1099  1373  1374    1
  1100  1374  1375    1
  1101  1376  1379    1
  1102  1377  1379    1
  1103  1378  1379    1
  1104  1379  1380    1
  1105  1381  1384    1
  1106  1382  1384    1
  1107  1383  1384    1
  1108  1384  1385    1
  1109  1386  1389    1
  1110  1387  1389    1
  1111  1388  1389    1
  1112  1389  1390    1
  1113  1391  1394    1
  1114  1392  1394    1
  1115  1393  1394    1
  1116  1394  1395    1
  1117  1396  1399    1
  1118  1397  1399    1
  1119  1398  1399    1
  1120  1399  1400    1
  1121  1401  1404    1
  1122  1402  1404    1
  1123  1403  1404    1
  1124  1404  1405    1
  1125  1406  1409    1
  1126  1407  1409    1
  1127  1408  1409    1
  1128  1409  1410    1
  1129  1411  1414    1
  1130  1412  1414    1
  1131  1413  1414    1
  1132  1414  1415    1
  1133  1416  1419    1
  1134  1417  1419    1
  1135  1418  1419    1
  1136  1419  1420    1
  1137  1421  1424    1
  1138  1422  1424    1
  1139  1423  1424    1
  1140  1424  1425    1
  1141  1426  1429    1
  1142  1427  1429    1
  1143  1428  1429    1
  1144  1429  1430    1
  1145  1431  1434    1
  1146  1432  1434    1
  1147  1433  1434    1
  1148  1434  1435    1
  1149  1436  1439    1
  1150  1437  1439    1
  1151  1438  1439    1
  1152  1439  1440    1
  1153  1441  1444    1
  1154  1442  1444    1
  1155  1443  1444    1
  1156  1444  1445    1
  1157  1446  1449    1
  1158  1447  1449    1
  1159  1448  1449    1
  1160  1449  1450    1
  1161  1451  1454    1
  1162  1452  1454    1
  1163  1453  1454    1
  1164  1454  1455    1
  1165  1456  1459    1
  1166  1457  1459    1
  1167  1458  1459    1
  1168  1459  1460    1
  1169  1461  1464    1
  1170  1462  1464    1
  1171  1463  1464    1
  1172  1464  1465    1
  1173  1466  1469    1
  1174  1467  1469    1
  1175  1468  1469    1
  1176  1469  1470    1
  1177  1471  1474    1
  1178  1472  1474    1
  1179  1473  1474    1
  1180  1474  1475    1
  1181  1476  1479    1
  1182  1477  1479    1
  1183  1478  1479    1
  1184  1479  1480    1
  1185  1481  1484    1
  1186  1482  1484    1
  1187  1483  1484    1
  1188  1484  1485    1
  1189  1486  1489    1
  1190  1487  1489    1
  1191  1488  1489    1
  1192  1489  1490    1
  1193  1491  1494    1
  1194  1492  1494    1
  1195  1493  1494    1
  1196  1494  1495    1
  1197  1496  1499    1
  1198  1497  1499    1
  1199  1498  1499    1
  1200  1499  1500    1
  1201  1501  1504    1
  1202  1502  1504    1
  1203  1503  1504    1
  1204  1504  1505    1
  1205  1506  1509    1
  1206  1507  1509    1
  1207  1508  1509    1
  1208  1509  1510    1
  1209  1511  1514    1
  1210  1512  1514    1
  1211  1513  1514    1
  1212  1514  1515    1
  1213  1516  1519    1
  1214  1517  1519    1
  1215  1518  1519    1
  1216  1519  1520    1
  1217  1521  1524    1
  1218  1522  1524    1
  1219  1523  1524    1
  1220  1524  1525    1
  1221  1526  1529    1
  1222  1527  1529    1
  1223  1528  1529    1
  1224  1529  1530    1
  1225  1531  1534    1
  1226  1532  1534    1
  1227  1533  1534    1
  1228  1534  1535    1
  1229  1536  1539    1
  1230  1537  1539    1
  1231  1538  1539    1
  1232  1539  1540    1
  1233  1541  1544    1
  1234  1542  1544    1
  1235  1543  1544    1
  1236  1544  1545    1
  1237  1546  1549    1
  1238  1547  1549    1
  1239  1548  1549    1
  1240  1549  1550    1
  1241  1551  1554    1
  1242  1552  1554    1
  1243  1553  1554    1
  1244  1554  1555    1
  1245  1556  1559    1
  1246  1557  1559    1
  1247  1558  1559    1
  1248  1559  1560    1
  1249  1561  1564    1
  1250  1562  1564    1
  1251  1563  1564    1
  1252  1564  1565    1
  1253  1566  1569    1
  1254  1567  1569    1
  1255  1568  1569    1
  1256  1569  1570    1
  1257  1571  1574    1
  1258  1572  1574    1
  1259  1573  1574    1
  1260  1574  1575    1
  1261  1576  1579    1
  1262  1577  1579    1
  1263  1578  1579    1
  1264  1579  1580    1
  1265  1581  1584    1
  1266  1582  1584    1
  1267  1583  1584    1
  1268  1584  1585    1
  1269  1586  1589    1
  1270  1587  1589    1
  1271  1588  1589    1
  1272  1589  1590    1
  1273  1591  1594    1
  1274  1592  1594    1
  1275  1593  1594    1
  1276  1594  1595    1
  1277  1596  1599    1
  1278  1597  1599    1
  1279  1598  1599    1
  1280  1599  1600    1
  1281  1601  1604    1
  1282  1602  1604    1
  1283  1603  1604    1
  1284  1604  1605    1
  1285  1606  1609    1
  1286  1607  1609    1
  1287  1608  1609    1
  1288  1609  1610    1
  1289  1611  1614    1
  1290  1612  1614    1
  1291  1613  1614    1
  1292  1614  1615    1
  1293  1616  1619    1
  1294  1617  1619    1
  1295  1618  1619    1
  1296  1619  1620    1
  1297  1621  1624    1
  1298  1622  1624    1
  1299  1623  1624    1
  1300  1624  1625    1
  1301  1626  1629    1
  1302  1627  1629    1
  1303  1628  1629    1
  1304  1629  1630    1
  1305  1631  1634    1
  1306  1632  1634    1
  1307  1633  1634    1
  1308  1634  1635    1
  1309  1636  1639    1
  1310  1637  1639    1
  1311  1638  1639    1
  1312  1639  1640    1
  1313  1641  1644    1
  1314  1642  1644    1
  1315  1643  1644    1
  1316  1644  1645    1
  1317  1646  1649    1
  1318  1647  1649    1
  1319  1648  1649    1
  1320  1649  1650    1
  1321  1651  1654    1
  1322  1652  1654    1
  1323  1653  1654    1
  1324  1654  1655    1
  1325  1656  1659    1
  1326  1657  1659    1
  1327  1658  1659    1
  1328  1659  1660    1
  1329  1661  1664    1
  1330  1662  1664    1
  1331  1663  1664    1
  1332  1664  1665    1
  1333  1666  1669    1
  1334  1667  1669    1
  1335  1668  1669    1
  1336  1669  1670    1
  1337  1671  1674    1
  1338  1672  1674    1
  1339  1673  1674    1
  1340  1674  1675    1
  1341  1676  1679    1
  1342  1677  1679    1
  1343  1678  1679    1
  1344  1679  1680    1
  1345  1681  1684    1
  1346  1682  1684    1
  1347  1683  1684    1
  1348  1684  1685    1
  1349  1686  1689    1
  1350  1687  1689    1
  1351  1688  1689    1
  1352  1689  1690    1
  1353  1691  1694    1
  1354  1692  1694    1
  1355  1693  1694    1
  1356  1694  1695    1
  1357  1696  1699    1
  1358  1697  1699    1
  1359  1698  1699    1
  1360  1699  1700    1
  1361  1701  1704    1
  1362  1702  1704    1
  1363  1703  1704    1
  1364  1704  1705    1
  1365  1706  1709    1
  1366  1707  1709    1
  1367  1708  1709    1
  1368  1709  1710    1
  1369  1711  1714    1
  1370  1712  1714    1
  1371  1713  1714    1
  1372  1714  1715    1
  1373  1716  1719    1
  1374  1717  1719    1
  1375  1718  1719    1
  1376  1719  1720    1
  1377  1721  1724    1
  1378  1722  1724    1
  1379  1723  1724    1
  1380  1724  1725    1
  1381  1726  1729    1
  1382  1727  1729    1
  1383  1728  1729    1
  1384  1729  1730    1
  1385  1731  1734    1
  1386  1732  1734    1
  1387  1733  1734    1
  1388  1734  1735    1
  1389  1736  1739    1
  1390  1737  1739    1
  1391  1738  1739    1
  1392  1739  1740    1
  1393  1741  1744    1
  1394  1742  1744    1
  1395  1743  1744    1
  1396  1744  1745    1
  1397  1746  1749    1
  1398  1747  1749    1
  1399  1748  1749    1
  1400  1749  1750    1
  1401  1751  1754    1
  1402  1752  1754    1
  1403  1753  1754    1
  1404  1754  1755    1
  1405  1756  1759    1
  1406  1757  1759    1
  1407  1758  1759    1
  1408  1759  1760    1
  1409  1761  1764    1
  1410  1762  1764    1
  1411  1763  1764    1
  1412  1764  1765    1
  1413  1766  1769    1
  1414  1767  1769    1
  1415  1768  1769    1
  1416  1769  1770    1
  1417  1771  1774    1
  1418  1772  1774    1
  1419  1773  1774    1
  1420  1774  1775    1
  1421  1776  1779    1
  1422  1777  1779    1
  1423  1778  1779    1
  1424  1779  1780    1
  1425  1781  1784    1
  1426  1782  1784    1
  1427  1783  1784    1
  1428  1784  1785    1
  1429  1786  1789    1
  1430  1787  1789    1
  1431  1788  1789    1
  1432  1789  1790    1
  1433  1791  1794    1
  1434  1792  1794    1
  1435  1793  1794    1
  1436  1794  1795    1
  1437  1796  1799    1
  1438  1797  1799    1
  1439  1798  1799    1
  1440  1799  1800    1
  1441  1801  1804    1
  1442  1802  1804    1
  1443  1803  1804    1
  1444  1804  1805    1
  1445  1806  1809    1
  1446  1807  1809    1
  1447  1808  1809    1
  1448  1809  1810    1
  1449  1811  1814    1
  1450  1812  1814    1
  1451  1813  1814    1
  1452  1814  1815    1
  1453  1816  1819    1
  1454  1817  1819    1
  1455  1818  1819    1
  1456  1819  1820    1
  1457  1821  1824    1
  1458  1822  1824    1
  1459  1823  1824    1
  1460  1824  1825    1
  1461  1826  1829    1
  1462  1827  1829    1
  1463  1828  1829    1
  1464  1829  1830    1
  1465  1831  1834    1
  1466  1832  1834    1
  1467  1833  1834    1
  1468  1834  1835    1
  1469  1836  1839    1
  1470  1837  1839    1
  1471  1838  1839    1
  1472  1839  1840    1
  1473  1841  1844    1
  1474  1842  1844    1
  1475  1843  1844    1
  1476  1844  1845    1
  1477  1846  1849    1
  1478  1847  1849    1
  1479  1848  1849    1
  1480  1849  1850    1
  1481  1851  1854    1
  1482  1852  1854    1
  1483  1853  1854    1
  1484  1854  1855    1
  1485  1856  1859    1
  1486  1857  1859    1
  1487  1858  1859    1
  1488  1859  1860    1
  1489  1861  1864    1
  1490  1862  1864    1
  1491  1863  1864    1
  1492  1864  1865    1
  1493  1866  1869    1
  1494  1867  1869    1
  1495  1868  1869    1
  1496  1869  1870    1
  1497  1871  1874    1
  1498  1872  1874    1
  1499  1873  1874    1
  1500  1874  1875    1
  1501  1876  1879    1
  1502  1877  1879    1
  1503  1878  1879    1
  1504  1879  1880    1
  1505  1881  1884    1
  1506  1882  1884    1
  1507  1883  1884    1
  1508  1884  1885    1
  1509  1886  1889    1
  1510  1887  1889    1
  1511  1888  1889    1
  1512  1889  1890    1
  1513  1891  1894    1
  1514  1892  1894    1
  1515  1893  1894    1
  1516  1894  1895    1
  1517  1896  1899    1
  1518  1897  1899    1
  1519  1898  1899    1
  1520  1899  1900    1
  1521  1901  1904    1
  1522  1902  1904    1
  1523  1903  1904    1
  1524  1904  1905    1
  1525  1906  1909    1
  1526  1907  1909    1
  1527  1908  1909    1
  1528  1909  1910    1
  1529  1911  1914    1
  1530  1912  1914    1
  1531  1913  1914    1
  1532  1914  1915    1
  1533  1916  1919    1
  1534  1917  1919    1
  1535  1918  1919    1
  1536  1919  1920    1
  1537  1921  1924    1
  1538  1922  1924    1
  1539  1923  1924    1
  1540  1924  1925    1
  1541  1926  1929    1
  1542  1927  1929    1
  1543  1928  1929    1
  1544  1929  1930    1
  1545  1931  1934    1
  1546  1932  1934    1
  1547  1933  1934    1
  1548  1934  1935    1
  1549  1936  1939    1
  1550  1937  1939    1
  1551  1938  1939    1
  1552  1939  1940    1
  1553  1941  1944    1
  1554  1942  1944    1
  1555  1943  1944    1
  1556  1944  1945    1
  1557  1946  1949    1
  1558  1947  1949    1
  1559  1948  1949    1
  1560  1949  1950    1
  1561  1951  1954    1
  1562  1952  1954    1
  1563  1953  1954    1
  1564  1954  1955    1
  1565  1956  1959    1
  1566  1957  1959    1
  1567  1958  1959    1
  1568  1959  1960    1
  1569  1961  1964    1
  1570  1962  1964    1
  1571  1963  1964    1
  1572  1964  1965    1
  1573  1966  1969    1
  1574  1967  1969    1
  1575  1968  1969    1
  1576  1969  1970    1
  1577  1971  1974    1
  1578  1972  1974    1
  1579  1973  1974    1
  1580  1974  1975    1
  1581  1976  1979    1
  1582  1977  1979    1
  1583  1978  1979    1
  1584  1979  1980    1
  1585  1981  1984    1
  1586  1982  1984    1
  1587  1983  1984    1
  1588  1984  1985    1
  1589  1986  1989    1
  1590  1987  1989    1
  1591  1988  1989    1
  1592  1989  1990    1
  1593  1991  1994    1
  1594  1992  1994    1
  1595  1993  1994    1
  1596  1994  1995    1
  1597  1996  1999    1
  1598  1997  1999    1
  1599  1998  1999    1
  1600  1999  2000    1
  1601  2001  2004    1
  1602  2002  2004    1
  1603  2003  2004    1
  1604  2004  2005    1
  1605  2006  2009    1
  1606  2007  2009    1
  1607  2008  2009    1
  1608  2009  2010    1
  1609  2011  2014    1
  1610  2012  2014    1
  1611  2013  2014    1
  1612  2014  2015    1
  1613  2016  2019    1
  1614  2017  2019    1
  1615  2018  2019    1
  1616  2019  2020    1
  1617  2021  2024    1
  1618  2022  2024    1
  1619  2023  2024    1
  1620  2024  2025    1
  1621  2026  2029    1
  1622  2027  2029    1
  1623  2028  2029    1
  1624  2029  2030    1
  1625  2031  2034    1
  1626  2032  2034    1
  1627  2033  2034    1
  1628  2034  2035    1
  1629  2036  2039    1
  1630  2037  2039    1
  1631  2038  2039    1
  1632  2039  2040    1
  1633  2041  2044    1
  1634  2042  2044    1
  1635  2043  2044    1
  1636  2044  2045    1
  1637  2046  2049    1
  1638  2047  2049    1
  1639  2048  2049    1
  1640  2049  2050    1
  1641  2051  2054    1
  1642  2052  2054    1
  1643  2053  2054    1
  1644  2054  2055    1
  1645  2056  2059    1
  1646  2057  2059    1
  1647  2058  2059    1
  1648  2059  2060    1
  1649  2061  2064    1
  1650  2062  2064    1
  1651  2063  2064    1
  1652  2064  2065    1
  1653  2066  2069    1
  1654  2067  2069    1
  1655  2068  2069    1
  1656  2069  2070    1
  1657  2071  2074    1
  1658  2072  2074    1
  1659  2073  2074    1
  1660  2074  2075    1
  1661  2076  2079    1
  1662  2077  2079    1
  1663  2078  2079    1
  1664  2079  2080    1
  1665  2081  2084    1
  1666  2082  2084    1
  1667  2083  2084    1
  1668  2084  2085    1
  1669  2086  2089    1
  1670  2087  2089    1
  1671  2088  2089    1
  1672  2089  2090    1
