@<TRIPOS>MOLECULE
*****
 860 688 0 0 0
SMALL
GASTEIGER

@<TRIPOS>ATOM
      1 CL         -0.7730    1.3865    2.8946 Cl      1  UNL1       -0.0870
      2 CL         -2.0827   -0.1705    0.8103 Cl      1  UNL1       -0.0870
      3 CL          0.8254   -0.0709    0.9439 Cl      1  UNL1       -0.0870
      4 C          -0.6769   -0.0649    1.8832 C.3     1  UNL1        0.1805
      5 H          -0.6769   -0.9405    2.5374 H       1  UNL1        0.0806
      6 CL          1.4904    1.9998    4.3251 Cl      2  UNL2       -0.0870
      7 CL          2.0952   -0.8031    3.8132 Cl      2  UNL2       -0.0870
      8 CL          2.4885    0.3089    6.4766 Cl      2  UNL2       -0.0870
      9 C           1.5015    0.3643    5.0062 C.3     2  UNL2        0.1805
     10 H           0.4756    0.0948    5.2702 H       2  UNL2        0.0806
     11 CL          2.8688    2.6756   10.1913 Cl      3  UNL3       -0.0870
     12 CL          1.5683    0.0693   10.1913 Cl      3  UNL3       -0.0870
     13 CL         -0.0386    2.4989   10.1912 Cl      3  UNL3       -0.0870
     14 C           1.4662    1.7479    9.6338 C.3     3  UNL3        0.1805
     15 H           1.4663    1.7479    8.5408 H       3  UNL3        0.0806
     16 CL         -1.7683    1.6287   12.6109 Cl      4  UNL4       -0.0870
     17 CL          1.0999    1.1210   12.6109 Cl      4  UNL4       -0.0870
     18 CL         -0.7740   -1.1091   12.6108 Cl      4  UNL4       -0.0870
     19 C          -0.4807    0.5470   12.0534 C.3     4  UNL4        0.1805
     20 H          -0.4808    0.5470   10.9604 H       4  UNL4        0.0806
     21 CL          0.9038    1.7406   15.7231 Cl      5  UNL5       -0.0870
     22 CL         -0.3967   -0.8657   15.7231 Cl      5  UNL5       -0.0870
     23 CL         -2.0036    1.5639   15.7230 Cl      5  UNL5       -0.0870
     24 C          -0.4988    0.8128   15.1656 C.3     5  UNL5        0.1805
     25 H          -0.4987    0.8129   14.0726 H       5  UNL5        0.0806
     26 CL          2.9428    1.5096   18.8194 Cl      6  UNL6       -0.0870
     27 CL          1.6423   -1.0967   18.8194 Cl      6  UNL6       -0.0870
     28 CL          0.0354    1.3329   18.8193 Cl      6  UNL6       -0.0870
     29 C           1.5402    0.5818   18.2619 C.3     6  UNL6        0.1805
     30 H           1.5403    0.5819   17.1689 H       6  UNL6        0.0806
     31 CL          2.9428    1.5096   22.1898 Cl      7  UNL7       -0.0870
     32 CL          1.6423   -1.0967   22.1898 Cl      7  UNL7       -0.0870
     33 CL          0.0354    1.3329   22.1897 Cl      7  UNL7       -0.0870
     34 C           1.5402    0.5818   21.6323 C.3     7  UNL7        0.1805
     35 H           1.5403    0.5819   20.5393 H       7  UNL7        0.0806
     36 CL          3.4688    6.2029    2.0635 Cl      8  UNL8       -0.0870
     37 CL          2.1683    3.5966    2.0635 Cl      8  UNL8       -0.0870
     38 CL          0.5615    6.0262    2.0634 Cl      8  UNL8       -0.0870
     39 C           2.0663    5.2751    1.5060 C.3     8  UNL8        0.1805
     40 H           2.0663    5.2752    0.4130 H       8  UNL8        0.0806
     41 CL         -0.8923    6.1850    5.3179 Cl      9  UNL9       -0.0870
     42 CL          1.9759    5.6773    5.3179 Cl      9  UNL9       -0.0870
     43 CL          0.1020    3.4472    5.3178 Cl      9  UNL9       -0.0870
     44 C           0.3953    5.1033    4.7604 C.3     9  UNL9        0.1805
     45 H           0.3952    5.1033    3.6674 H       9  UNL9        0.0806
     46 CL          2.2998    6.3279    8.5432 Cl     10  UNL10      -0.0870
     47 CL          0.9992    3.7216    8.5432 Cl     10  UNL10      -0.0870
     48 CL         -0.6076    6.1512    8.5431 Cl     10  UNL10      -0.0870
     49 C           0.8972    5.4001    7.9857 C.3    10  UNL10       0.1805
     50 H           0.8973    5.4002    6.8927 H      10  UNL10       0.0806
     51 CL         -0.0663    6.3120   12.2837 Cl     11  UNL11      -0.0870
     52 CL          2.8019    5.8042   12.2837 Cl     11  UNL11      -0.0870
     53 CL          0.9280    3.5742   12.2836 Cl     11  UNL11      -0.0870
     54 C           1.2213    5.2302   11.7262 C.3    11  UNL11       0.1805
     55 H           1.2212    5.2303   10.6332 H      11  UNL11       0.0806
     56 CL          2.9428    6.4319   15.4440 Cl     12  UNL12      -0.0870
     57 CL          1.6423    3.8256   15.4440 Cl     12  UNL12      -0.0870
     58 CL          0.0354    6.2552   15.4439 Cl     12  UNL12      -0.0870
     59 C           1.5402    5.5041   14.8865 C.3    12  UNL12       0.1805
     60 H           1.5403    5.5042   13.7935 H      12  UNL12       0.0806
     61 CL          2.9428    6.0859   18.8194 Cl     13  UNL13      -0.0870
     62 CL          1.6423    3.4796   18.8194 Cl     13  UNL13      -0.0870
     63 CL          0.0354    5.9092   18.8193 Cl     13  UNL13      -0.0870
     64 C           1.5402    5.1581   18.2619 C.3    13  UNL13       0.1805
     65 H           1.5403    5.1582   17.1689 H      13  UNL13       0.0806
     66 CL          2.9428    6.0859   22.1948 Cl     14  UNL14      -0.0870
     67 CL          1.6423    3.4796   22.1948 Cl     14  UNL14      -0.0870
     68 CL          0.0354    5.9092   22.1947 Cl     14  UNL14      -0.0870
     69 C           1.5402    5.1581   21.6373 C.3    14  UNL14       0.1805
     70 H           1.5403    5.1582   20.5443 H      14  UNL14       0.0806
     71 CL          2.7238   11.3544    1.8275 Cl     15  UNL15      -0.0870
     72 CL          1.4232    8.7482    1.8275 Cl     15  UNL15      -0.0870
     73 CL         -0.1836   11.1778    1.8274 Cl     15  UNL15      -0.0870
     74 C           1.3212   10.4267    1.2700 C.3    15  UNL15       0.1805
     75 H           1.3213   10.4267    0.1770 H      15  UNL15       0.0806
     76 CL          1.9024    8.3535    4.0405 Cl     16  UNL16      -0.0870
     77 CL          0.3364    9.0015    6.4094 Cl     16  UNL16      -0.0870
     78 CL          2.5733   10.6982    5.6332 Cl     16  UNL16      -0.0870
     79 C           1.2608    9.6608    5.0495 C.3    16  UNL16       0.1805
     80 H           0.5882   10.2682    4.4386 H      16  UNL16       0.0806
     81 CL          2.9728   11.3014    8.9173 Cl     17  UNL17      -0.0870
     82 CL          1.6723    8.6951    8.9173 Cl     17  UNL17      -0.0870
     83 CL          0.0654   11.1247    8.9172 Cl     17  UNL17      -0.0870
     84 C           1.5702   10.3737    8.3598 C.3    17  UNL17       0.1805
     85 H           1.5703   10.3737    7.2668 H      17  UNL17       0.0806
     86 CL          3.7258   10.9143   11.8976 Cl     18  UNL18      -0.0870
     87 CL          2.4253    8.3080   11.8976 Cl     18  UNL18      -0.0870
     88 CL          0.8184   10.7376   11.8975 Cl     18  UNL18      -0.0870
     89 C           2.3232    9.9865   11.3401 C.3    18  UNL18       0.1805
     90 H           2.3233    9.9866   10.2471 H      18  UNL18       0.0806
     91 CL          1.2450    8.3956   15.4440 Cl     19  UNL19      -0.0870
     92 CL         -0.0647   10.9973   15.4440 Cl     19  UNL19      -0.0870
     93 CL          2.8434   10.8306   15.4439 Cl     19  UNL19      -0.0870
     94 C           1.3411   10.0745   14.8865 C.3    19  UNL19       0.1805
     95 H           1.3411   10.0744   13.7935 H      19  UNL19       0.0806
     96 CL          2.9428   10.6622   18.8194 Cl     20  UNL20      -0.0870
     97 CL          1.6423    8.0559   18.8194 Cl     20  UNL20      -0.0870
     98 CL          0.0354   10.4855   18.8193 Cl     20  UNL20      -0.0870
     99 C           1.5402    9.7344   18.2619 C.3    20  UNL20       0.1805
    100 H           1.5403    9.7345   17.1689 H      20  UNL20       0.0806
    101 CL          2.9428   10.6622   22.1948 Cl     21  UNL21      -0.0870
    102 CL          1.6423    8.0559   22.1948 Cl     21  UNL21      -0.0870
    103 CL          0.0354   10.4855   22.1947 Cl     21  UNL21      -0.0870
    104 C           1.5402    9.7344   21.6373 C.3    21  UNL21       0.1805
    105 H           1.5403    9.7345   20.5443 H      21  UNL21       0.0806
    106 CL          0.6310    8.8697   24.7455 Cl     22  UNL22      -0.0870
    107 CL         -0.8615   11.3705   24.6949 Cl     22  UNL22      -0.0870
    108 CL         -2.0313    8.9531   23.5670 Cl     22  UNL22      -0.0870
    109 C          -0.9772    9.6079   24.8316 C.3    22  UNL22       0.1805
    110 H          -1.4149    9.3662   25.8035 H      22  UNL22       0.0806
    111 CL          2.4678   15.8587    1.8365 Cl     23  UNL23      -0.0870
    112 CL          1.1672   13.2524    1.8365 Cl     23  UNL23      -0.0870
    113 CL         -0.4396   15.6820    1.8364 Cl     23  UNL23      -0.0870
    114 C           1.0652   14.9309    1.2790 C.3    23  UNL23       0.1805
    115 H           1.0653   14.9310    0.1860 H      23  UNL23       0.0806
    116 CL          2.4954   12.7567    3.9165 Cl     24  UNL24      -0.0870
    117 CL          0.9294   13.4047    6.2854 Cl     24  UNL24      -0.0870
    118 CL          3.1662   15.1014    5.5092 Cl     24  UNL24      -0.0870
    119 C           1.8538   14.0640    4.9255 C.3    24  UNL24       0.1805
    120 H           1.1812   14.6714    4.3146 H      24  UNL24       0.0806
    121 CL          3.3168   15.9997    8.7233 Cl     25  UNL25      -0.0870
    122 CL          2.0163   13.3935    8.7233 Cl     25  UNL25      -0.0870
    123 CL          0.4094   15.8231    8.7232 Cl     25  UNL25      -0.0870
    124 C           1.9143   15.0720    8.1658 C.3    25  UNL25       0.1805
    125 H           1.9143   15.0720    7.0727 H      25  UNL25       0.0806
    126 CL          0.1646   13.0445   11.8216 Cl     26  UNL26      -0.0870
    127 CL          0.2754   15.9552   11.8216 Cl     26  UNL26      -0.0870
    128 CL          2.7408   14.4037   11.8215 Cl     26  UNL26      -0.0870
    129 C           1.0601   14.4679   11.2641 C.3    26  UNL26       0.1805
    130 H           1.0601   14.4678   10.1711 H      26  UNL26       0.0806
    131 CL         -0.0860   14.4915   13.7091 Cl     27  UNL27      -0.0870
    132 CL         -1.3957   12.9345   15.7935 Cl     27  UNL27      -0.0870
    133 CL          1.5124   13.0343   15.6600 Cl     27  UNL27      -0.0870
    134 C           0.0101   13.9334   15.3878 C.3    27  UNL27       0.1805
    135 H           0.0101   14.8091   16.0419 H      27  UNL27       0.0806
    136 CL          2.9428   15.2384   18.8194 Cl     28  UNL28      -0.0870
    137 CL          1.6423   12.6322   18.8194 Cl     28  UNL28      -0.0870
    138 CL          0.0354   15.0618   18.8193 Cl     28  UNL28      -0.0870
    139 C           1.5402   14.3107   18.2619 C.3    28  UNL28       0.1805
    140 H           1.5403   14.3107   17.1689 H      28  UNL28       0.0806
    141 CL          2.9428   15.2394   22.1948 Cl     28  UNL28      -0.0870
    142 CL          1.6423   12.6332   22.1948 Cl     28  UNL28      -0.0870
    143 CL          0.0354   15.0628   22.1947 Cl     28  UNL28      -0.0870
    144 C           1.5402   14.3117   21.6373 C.3    28  UNL28       0.1805
    145 H           1.5403   14.3117   20.5443 H      28  UNL28       0.0806
    146 CL          3.6526   -0.6020    1.4557 Cl     28  UNL28      -0.0870
    147 CL          4.4364    1.9997    2.5049 Cl     28  UNL28      -0.0870
    148 CL          2.6960    1.8330    0.1752 Cl     28  UNL28      -0.0870
    149 C           3.1485    1.0769    1.7123 C.3    28  UNL28       0.1805
    150 H           2.2728    1.0768    2.3664 H      28  UNL28       0.0806
    151 CL          4.5298    1.6647    4.9459 Cl     28  UNL28      -0.0870
    152 CL          7.3980    1.1570    4.9459 Cl     28  UNL28      -0.0870
    153 CL          5.5240   -1.0731    4.9458 Cl     28  UNL28      -0.0870
    154 C           5.8174    0.5830    4.3884 C.3    28  UNL28       0.1805
    155 H           5.8173    0.5830    3.2954 H      28  UNL28       0.0806
    156 CL          4.4668    1.6637    8.6933 Cl     28  UNL28      -0.0870
    157 CL          7.3350    1.1560    8.6933 Cl     28  UNL28      -0.0870
    158 CL          5.4610   -1.0741    8.6932 Cl     28  UNL28      -0.0870
    159 C           5.7544    0.5820    8.1358 C.3    28  UNL28       0.1805
    160 H           5.7543    0.5820    7.0428 H      28  UNL28       0.0806
    161 CL          8.0719   -0.6534   12.0686 Cl     28  UNL28      -0.0870
    162 CL          6.7713   -3.2597   12.0686 Cl     28  UNL28      -0.0870
    163 CL          5.1645   -0.8301   12.0685 Cl     28  UNL28      -0.0870
    164 C           6.6693   -1.5812   11.5111 C.3    28  UNL28       0.1805
    165 H           6.6694   -1.5811   10.4181 H      28  UNL28       0.0806
    166 CL          3.2537   -0.9377   14.9549 Cl     28  UNL28      -0.0870
    167 CL          4.1230    1.3201   16.5768 Cl     28  UNL28      -0.0870
    168 CL          5.6456    0.5511   14.2157 Cl     28  UNL28      -0.0870
    169 C           4.0309    0.6543   14.9377 C.3    28  UNL28       0.1805
    170 H           3.4234    1.3269   14.3268 H      28  UNL28       0.0806
    171 CL          3.4968   -2.0799   24.2394 Cl     28  UNL28      -0.0870
    172 CL          6.1611   -2.7044   25.2372 Cl     28  UNL28      -0.0870
    173 CL          5.4303    0.0566   24.6649 Cl     28  UNL28      -0.0870
    174 C           4.8475   -1.5156   25.2373 C.3    28  UNL28       0.1805
    175 H           4.4908   -1.3972   26.2637 H      28  UNL28       0.0806
    176 CL          6.5621    3.2077    1.7756 Cl     28  UNL28      -0.0870
    177 CL          5.2524    1.6507   -0.3087 Cl     28  UNL28      -0.0870
    178 CL          8.1605    1.7504   -0.1751 Cl     28  UNL28      -0.0870
    179 C           6.6582    1.7563    0.7642 C.3    28  UNL28       0.1805
    180 H           6.6582    0.8807    1.4184 H      28  UNL28       0.0806
    181 CL          7.3456    6.6117    5.2188 Cl     28  UNL28      -0.0870
    182 CL          8.1294    4.6736    3.1906 Cl     28  UNL28      -0.0870
    183 CL          6.3890    3.8654    5.3820 Cl     28  UNL28      -0.0870
    184 C           6.8415    5.1878    4.2930 C.3    28  UNL28       0.1805
    185 H           5.9658    5.4575    3.6971 H      28  UNL28       0.0806
    186 CL          6.2071    3.4793    8.4502 Cl     28  UNL28      -0.0870
    187 CL          4.8974    6.0810    8.4502 Cl     28  UNL28      -0.0870
    188 CL          7.8055    5.9143    8.4501 Cl     28  UNL28      -0.0870
    189 C           6.3032    5.1582    7.8927 C.3    28  UNL28       0.1805
    190 H           6.3032    5.1581    6.7997 H      28  UNL28       0.0806
    191 CL          5.5998    4.6429   11.9636 Cl     28  UNL28      -0.0870
    192 CL          8.4680    4.1352   11.9636 Cl     28  UNL28      -0.0870
    193 CL          6.5940    1.9051   11.9635 Cl     28  UNL28      -0.0870
    194 C           6.8873    3.5612   11.4061 C.3    28  UNL28       0.1805
    195 H           6.8872    3.5613   10.3131 H      28  UNL28       0.0806
    196 CL          5.4982    5.7958   16.2192 Cl     28  UNL28      -0.0870
    197 CL          4.1885    4.2388   14.1348 Cl     28  UNL28      -0.0870
    198 CL          7.0966    4.3385   14.2684 Cl     28  UNL28      -0.0870
    199 C           5.5943    4.3444   15.2078 C.3    28  UNL28       0.1805
    200 H           5.5943    3.4688   15.8620 H      28  UNL28       0.0806
    201 CL          5.0678    3.9480   18.8194 Cl     28  UNL28      -0.0870
    202 CL          7.9360    3.4402   18.8194 Cl     28  UNL28      -0.0870
    203 CL          6.0620    1.2102   18.8193 Cl     28  UNL28      -0.0870
    204 C           6.3553    2.8662   18.2619 C.3    28  UNL28       0.1805
    205 H           6.3553    2.8663   17.1689 H      28  UNL28       0.0806
    206 CL          4.8028    4.0540   22.1948 Cl     28  UNL28      -0.0870
    207 CL          7.6710    3.5462   22.1948 Cl     28  UNL28      -0.0870
    208 CL          5.7971    1.3162   22.1947 Cl     28  UNL28      -0.0870
    209 C           6.0904    2.9722   21.6373 C.3    28  UNL28       0.1805
    210 H           6.0903    2.9723   20.5443 H      28  UNL28       0.0806
    211 CL          3.6356    2.4241   24.4081 Cl     28  UNL28      -0.0870
    212 CL          4.3496    4.9249   25.7197 Cl     28  UNL28      -0.0870
    213 CL          5.8823    2.5075   26.2600 Cl     28  UNL28      -0.0870
    214 C           4.9655    3.4089   25.0408 C.3    28  UNL28       0.1805
    215 H           5.6382    3.6505   24.2139 H      28  UNL28       0.0806
    216 CL          4.5388    8.2383    0.3585 Cl     28  UNL28      -0.0870
    217 CL          7.4070    7.7305    0.3585 Cl     28  UNL28      -0.0870
    218 CL          5.5331    5.5004    0.3584 Cl     28  UNL28      -0.0870
    219 C           5.8264    7.1565   -0.1990 C.3    28  UNL28       0.1805
    220 H           5.8263    7.1566   -1.2920 H      28  UNL28       0.0806
    221 CL          7.6139   10.1530    3.1898 Cl     28  UNL28      -0.0870
    222 CL          6.3133    7.5467    3.1898 Cl     28  UNL28      -0.0870
    223 CL          4.7065    9.9763    3.1897 Cl     28  UNL28      -0.0870
    224 C           6.2113    9.2252    2.6323 C.3    28  UNL28       0.1805
    225 H           6.2114    9.2253    1.5393 H      28  UNL28       0.0806
    226 CL          6.1931    8.5348    6.7173 Cl     28  UNL28      -0.0870
    227 CL          4.8834   11.1365    6.7173 Cl     28  UNL28      -0.0870
    228 CL          7.7915   10.9698    6.7172 Cl     28  UNL28      -0.0870
    229 C           6.2892   10.2137    6.1598 C.3    28  UNL28       0.1805
    230 H           6.2892   10.2136    5.0668 H      28  UNL28       0.0806
    231 CL          5.9741    8.7354    9.2577 Cl     28  UNL28      -0.0870
    232 CL          4.6644    7.1784   11.3420 Cl     28  UNL28      -0.0870
    233 CL          7.5725    7.2782   11.2085 Cl     28  UNL28      -0.0870
    234 C           6.0702    8.1773   10.9364 C.3    28  UNL28       0.1805
    235 H           6.0702    9.0530   11.5904 H      28  UNL28       0.0806
    236 CL          4.8267    8.2148   14.9549 Cl     28  UNL28      -0.0870
    237 CL          5.6960   10.4727   16.5768 Cl     28  UNL28      -0.0870
    238 CL          7.2186    9.7037   14.2157 Cl     28  UNL28      -0.0870
    239 C           5.6039    9.8068   14.9377 C.3    28  UNL28       0.1805
    240 H           4.9964   10.4794   14.3268 H      28  UNL28       0.0806
    241 CL          4.9668    8.9312   18.8414 Cl     28  UNL28      -0.0870
    242 CL          7.8350    8.4235   18.8414 Cl     28  UNL28      -0.0870
    243 CL          5.9610    6.1934   18.8413 Cl     28  UNL28      -0.0870
    244 C           6.2544    7.8495   18.2839 C.3    28  UNL28       0.1805
    245 H           6.2543    7.8496   17.1909 H      28  UNL28       0.0806
    246 CL          5.0588    8.8583   22.1948 Cl     28  UNL28      -0.0870
    247 CL          7.9270    8.3505   22.1948 Cl     28  UNL28      -0.0870
    248 CL          6.0530    6.1205   22.1947 Cl     28  UNL28      -0.0870
    249 C           6.3463    7.7765   21.6373 C.3    28  UNL28       0.1805
    250 H           6.3463    7.7766   20.5443 H      28  UNL28       0.0806
    251 CL          7.7489   13.5884    0.2485 Cl     28  UNL28      -0.0870
    252 CL          6.4483   10.9822    0.2485 Cl     28  UNL28      -0.0870
    253 CL          4.8415   13.4118    0.2484 Cl     28  UNL28      -0.0870
    254 C           6.3463   12.6607   -0.3090 C.3    28  UNL28       0.1805
    255 H           6.3464   12.6607   -1.4020 H      28  UNL28       0.0806
    256 CL          7.1358   15.0893    4.7154 Cl     28  UNL28      -0.0870
    257 CL          4.9579   13.2165    5.1985 Cl     28  UNL28      -0.0870
    258 CL          6.6759   12.8833    2.8699 Cl     28  UNL28      -0.0870
    259 C           6.5995   13.4079    4.5605 C.3    28  UNL28       0.1805
    260 H           7.2723   12.7770    5.1471 H      28  UNL28       0.0806
    261 CL          7.7089   13.4525   10.2682 Cl     28  UNL28      -0.0870
    262 CL          6.4083   10.8462   10.2682 Cl     28  UNL28      -0.0870
    263 CL          4.8015   13.2758   10.2681 Cl     28  UNL28      -0.0870
    264 C           6.3063   12.5247    9.7107 C.3    28  UNL28       0.1805
    265 H           6.3064   12.5247    8.6177 H      28  UNL28       0.0806
    266 CL          6.1471   13.3982   12.6329 Cl     28  UNL28      -0.0870
    267 CL          4.8374   15.9999   12.6329 Cl     28  UNL28      -0.0870
    268 CL          7.7455   15.8332   12.6328 Cl     28  UNL28      -0.0870
    269 C           6.2432   15.0771   12.0754 C.3    28  UNL28       0.1805
    270 H           6.2432   15.0770   10.9824 H      28  UNL28       0.0806
    271 CL          3.4818   15.3605   15.4440 Cl     28  UNL28      -0.0870
    272 CL          6.3500   14.8528   15.4440 Cl     28  UNL28      -0.0870
    273 CL          4.4760   12.6227   15.4439 Cl     28  UNL28      -0.0870
    274 C           4.7694   14.2788   14.8865 C.3    28  UNL28       0.1805
    275 H           4.7693   14.2788   13.7935 H      28  UNL28       0.0806
    276 CL          7.7489   13.4355   18.8194 Cl     28  UNL28      -0.0870
    277 CL          6.4483   10.8292   18.8194 Cl     28  UNL28      -0.0870
    278 CL          4.8415   13.2588   18.8193 Cl     28  UNL28      -0.0870
    279 C           6.3463   12.5078   18.2619 C.3    28  UNL28       0.1805
    280 H           6.3464   12.5078   17.1689 H      28  UNL28       0.0806
    281 CL          7.7489   13.4744   22.1948 Cl     28  UNL28      -0.0870
    282 CL          6.4483   10.8682   22.1948 Cl     28  UNL28      -0.0870
    283 CL          4.8415   13.2978   22.1947 Cl     28  UNL28      -0.0870
    284 C           6.3463   12.5467   21.6373 C.3    28  UNL28       0.1805
    285 H           6.3464   12.5467   20.5443 H      28  UNL28       0.0806
    286 CL          4.2450   12.6290   26.5108 Cl     28  UNL28      -0.0870
    287 CL          2.2287   12.0045   24.5037 Cl     28  UNL28      -0.0870
    288 CL          2.6586   14.7655   25.3263 Cl     28  UNL28      -0.0870
    289 C           3.4255   13.1932   25.0449 C.3    28  UNL28       0.1805
    290 H           4.1735   13.3116   24.2568 H      28  UNL28       0.0806
    291 CL         12.1228    1.5096    2.0185 Cl     28  UNL28      -0.0870
    292 CL         10.8222   -1.0967    2.0185 Cl     28  UNL28      -0.0870
    293 CL          9.2154    1.3329    2.0184 Cl     28  UNL28      -0.0870
    294 C          10.7202    0.5818    1.4610 C.3    28  UNL28       0.1805
    295 H          10.7203    0.5819    0.3680 H      28  UNL28       0.0806
    296 CL         11.6315   -0.9770    4.1875 Cl     28  UNL28      -0.0870
    297 CL         10.0655   -0.3290    6.5564 Cl     28  UNL28      -0.0870
    298 CL         12.3024    1.3677    5.7802 Cl     28  UNL28      -0.0870
    299 C          10.9899    0.3303    5.1965 C.3    28  UNL28       0.1805
    300 H          10.3173    0.9377    4.5856 H      28  UNL28       0.0806
    301 CL         12.7670    1.8336    9.0884 Cl     28  UNL28      -0.0870
    302 CL         11.4665   -0.7727    9.0884 Cl     28  UNL28      -0.0870
    303 CL          9.8597    1.6569    9.0883 Cl     28  UNL28      -0.0870
    304 C          11.3645    0.9058    8.5309 C.3    28  UNL28       0.1805
    305 H          11.3646    0.9059    7.4379 H      28  UNL28       0.0806
    306 CL         12.5550    1.8176   12.0686 Cl     28  UNL28      -0.0870
    307 CL         11.2544   -0.7887   12.0686 Cl     28  UNL28      -0.0870
    308 CL          9.6476    1.6409   12.0685 Cl     28  UNL28      -0.0870
    309 C          11.1524    0.8898   11.5111 C.3    28  UNL28       0.1805
    310 H          11.1525    0.8899   10.4181 H      28  UNL28       0.0806
    311 CL          7.7039    1.7447   15.4440 Cl     28  UNL28      -0.0870
    312 CL         10.5720    1.2370   15.4440 Cl     28  UNL28      -0.0870
    313 CL          8.6981   -0.9931   15.4439 Cl     28  UNL28      -0.0870
    314 C           8.9914    0.6630   14.8865 C.3    28  UNL28       0.1805
    315 H           8.9913    0.6630   13.7935 H      28  UNL28       0.0806
    316 CL         12.5550    1.5096   18.9253 Cl     28  UNL28      -0.0870
    317 CL         11.2544   -1.0967   18.9253 Cl     28  UNL28      -0.0870
    318 CL          9.6476    1.3329   18.9252 Cl     28  UNL28      -0.0870
    319 C          11.1524    0.5818   18.3678 C.3    28  UNL28       0.1805
    320 H          11.1525    0.5819   17.2748 H      28  UNL28       0.0806
    321 CL         12.5550    1.8316   22.1948 Cl     28  UNL28      -0.0870
    322 CL         11.2544   -0.7747   22.1948 Cl     28  UNL28      -0.0870
    323 CL          9.6476    1.6549   22.1947 Cl     28  UNL28      -0.0870
    324 C          11.1524    0.9038   21.6373 C.3    28  UNL28       0.1805
    325 H          11.1525    0.9039   20.5443 H      28  UNL28       0.0806
    326 CL          8.7449    1.8337   25.9051 Cl     28  UNL28      -0.0870
    327 CL         11.6131    1.3260   25.9051 Cl     28  UNL28      -0.0870
    328 CL          9.7391   -0.9041   25.9050 Cl     28  UNL28      -0.0870
    329 C          10.0324    0.7520   25.3476 C.3    28  UNL28       0.1805
    330 H          10.0324    0.7520   24.2546 H      28  UNL28       0.0806
    331 CL          9.8856    3.6859    1.6355 Cl     28  UNL28      -0.0870
    332 CL          9.9965    6.5966    1.6355 Cl     28  UNL28      -0.0870
    333 CL         12.4618    5.0451    1.6354 Cl     28  UNL28      -0.0870
    334 C          10.7812    5.1093    1.0780 C.3    28  UNL28       0.1805
    335 H          10.7811    5.1092   -0.0150 H      28  UNL28       0.0806
    336 CL         10.6332    5.4412    3.5529 Cl     28  UNL28      -0.0870
    337 CL          9.3235    3.8841    5.6373 Cl     28  UNL28      -0.0870
    338 CL         12.2316    3.9840    5.5038 Cl     28  UNL28      -0.0870
    339 C          10.7293    4.8830    5.2316 C.3    28  UNL28       0.1805
    340 H          10.7293    5.7588    5.8856 H      28  UNL28       0.0806
    341 CL         10.2090    6.2370    8.6933 Cl     28  UNL28      -0.0870
    342 CL         13.0772    5.7293    8.6933 Cl     28  UNL28      -0.0870
    343 CL         11.2032    3.4992    8.6932 Cl     28  UNL28      -0.0870
    344 C          11.4966    5.1553    8.1358 C.3    28  UNL28       0.1805
    345 H          11.4965    5.1553    7.0428 H      28  UNL28       0.0806
    346 CL         12.6900    6.4879   12.0686 Cl     28  UNL28      -0.0870
    347 CL         11.3895    3.8816   12.0686 Cl     28  UNL28      -0.0870
    348 CL          9.7826    6.3112   12.0685 Cl     28  UNL28      -0.0870
    349 C          11.2874    5.5601   11.5111 C.3    28  UNL28       0.1805
    350 H          11.2875    5.5602   10.4181 H      28  UNL28       0.0806
    351 CL          9.1719    6.4100   15.4360 Cl     28  UNL28      -0.0870
    352 CL         12.0401    5.9022   15.4360 Cl     28  UNL28      -0.0870
    353 CL         10.1661    3.6722   15.4359 Cl     28  UNL28      -0.0870
    354 C          10.4595    5.3282   14.8785 C.3    28  UNL28       0.1805
    355 H          10.4594    5.3283   13.7855 H      28  UNL28       0.0806
    356 CL         12.5550    6.0849   18.8194 Cl     28  UNL28      -0.0870
    357 CL         11.2544    3.4786   18.8194 Cl     28  UNL28      -0.0870
    358 CL          9.6476    5.9082   18.8193 Cl     28  UNL28      -0.0870
    359 C          11.1524    5.1571   18.2619 C.3    28  UNL28       0.1805
    360 H          11.1525    5.1572   17.1689 H      28  UNL28       0.0806
    361 CL         12.5550    6.0859   22.1948 Cl     28  UNL28      -0.0870
    362 CL         11.2544    3.4796   22.1948 Cl     28  UNL28      -0.0870
    363 CL          9.6476    5.9092   22.1947 Cl     28  UNL28      -0.0870
    364 C          11.1524    5.1581   21.6373 C.3    28  UNL28       0.1805
    365 H          11.1525    5.1582   20.5443 H      28  UNL28       0.0806
    366 CL         13.2662   10.9933    2.3235 Cl     28  UNL28      -0.0870
    367 CL         11.9657    8.3870    2.3235 Cl     28  UNL28      -0.0870
    368 CL         10.3589   10.8166    2.3234 Cl     28  UNL28      -0.0870
    369 C          11.8637   10.0655    1.7660 C.3    28  UNL28       0.1805
    370 H          11.8638   10.0656    0.6730 H      28  UNL28       0.0806
    371 CL         10.5676    8.7499    5.4434 Cl     28  UNL28      -0.0870
    372 CL          9.4210   11.3516    4.8104 Cl     28  UNL28      -0.0870
    373 CL         11.9670   11.1849    6.2158 Cl     28  UNL28      -0.0870
    374 C          10.9212   10.4288    5.0018 C.3    28  UNL28       0.1805
    375 H          11.4494   10.4287    4.0449 H      28  UNL28       0.0806
    376 CL         12.8021   10.6622    9.2925 Cl     28  UNL28      -0.0870
    377 CL         11.5015    8.0559    9.2925 Cl     28  UNL28      -0.0870
    378 CL          9.8947   10.4855    9.2924 Cl     28  UNL28      -0.0870
    379 C          11.3995    9.7344    8.7350 C.3    28  UNL28       0.1805
    380 H          11.3996    9.7345    7.6420 H      28  UNL28       0.0806
    381 CL          9.8749   11.3005   12.4028 Cl     28  UNL28      -0.0870
    382 CL         12.7431   10.7927   12.4028 Cl     28  UNL28      -0.0870
    383 CL         10.8692    8.5627   12.4027 Cl     28  UNL28      -0.0870
    384 C          11.1625   10.2187   11.8453 C.3    28  UNL28       0.1805
    385 H          11.1624   10.2188   10.7523 H      28  UNL28       0.0806
    386 CL         10.8083    8.4718   15.4440 Cl     28  UNL28      -0.0870
    387 CL          9.4986   11.0735   15.4440 Cl     28  UNL28      -0.0870
    388 CL         12.4067   10.9068   15.4439 Cl     28  UNL28      -0.0870
    389 C          10.9044   10.1507   14.8865 C.3    28  UNL28       0.1805
    390 H          10.9044   10.1506   13.7935 H      28  UNL28       0.0806
    391 CL         12.5550   10.6622   18.8194 Cl     28  UNL28      -0.0870
    392 CL         11.2544    8.0559   18.8194 Cl     28  UNL28      -0.0870
    393 CL          9.6476   10.4855   18.8193 Cl     28  UNL28      -0.0870
    394 C          11.1524    9.7344   18.2619 C.3    28  UNL28       0.1805
    395 H          11.1525    9.7345   17.1689 H      28  UNL28       0.0806
    396 CL         12.5550   10.6622   22.1948 Cl     28  UNL28      -0.0870
    397 CL         11.2544    8.0559   22.1948 Cl     28  UNL28      -0.0870
    398 CL          9.6476   10.4855   22.1947 Cl     28  UNL28      -0.0870
    399 C          11.1524    9.7344   21.6373 C.3    28  UNL28       0.1805
    400 H          11.1525    9.7345   20.5443 H      28  UNL28       0.0806
    401 CL         11.8187   16.1767    1.9425 Cl     28  UNL28      -0.0870
    402 CL         10.5181   13.5705    1.9425 Cl     28  UNL28      -0.0870
    403 CL          8.9113   16.0001    1.9424 Cl     28  UNL28      -0.0870
    404 C          10.4161   15.2491    1.3850 C.3    28  UNL28       0.1805
    405 H          10.4162   15.2491    0.2920 H      28  UNL28       0.0806
    406 CL          9.6689   15.9998    5.2489 Cl     28  UNL28      -0.0870
    407 CL         12.5371   15.4920    5.2489 Cl     28  UNL28      -0.0870
    408 CL         10.6631   13.2620    5.2488 Cl     28  UNL28      -0.0870
    409 C          10.9564   14.9180    4.6914 C.3    28  UNL28       0.1805
    410 H          10.9564   14.9181    3.5984 H      28  UNL28       0.0806
    411 CL          8.9149   14.4337    8.4572 Cl     28  UNL28      -0.0870
    412 CL         11.1740   16.2723    8.4572 Cl     28  UNL28      -0.0870
    413 CL         11.6367   13.3965    8.4571 Cl     28  UNL28      -0.0870
    414 C          10.5752   14.7010    7.8997 C.3    28  UNL28       0.1805
    415 H          10.5751   14.7010    6.8067 H      28  UNL28       0.0806
    416 CL         11.3489   13.6593   11.5450 Cl     28  UNL28      -0.0870
    417 CL         10.2023   16.2607   10.9120 Cl     28  UNL28      -0.0870
    418 CL         12.7483   16.0942   12.3174 Cl     28  UNL28      -0.0870
    419 C          11.7025   15.3382   11.1034 C.3    28  UNL28       0.1805
    420 H          12.2308   15.3381   10.1465 H      28  UNL28       0.0806
    421 CL         12.1948   15.8857   15.1679 Cl     28  UNL28      -0.0870
    422 CL         10.8943   13.2794   15.1679 Cl     28  UNL28      -0.0870
    423 CL          9.2874   15.7090   15.1678 Cl     28  UNL28      -0.0870
    424 C          10.7922   14.9579   14.6104 C.3    28  UNL28       0.1805
    425 H          10.7923   14.9580   13.5174 H      28  UNL28       0.0806
    426 CL         12.5550   15.2384   18.8194 Cl     28  UNL28      -0.0870
    427 CL         11.2544   12.6322   18.8194 Cl     28  UNL28      -0.0870
    428 CL          9.6476   15.0618   18.8193 Cl     28  UNL28      -0.0870
    429 C          11.1524   14.3107   18.2619 C.3    28  UNL28       0.1805
    430 H          11.1525   14.3107   17.1689 H      28  UNL28       0.0806
    431 CL         12.5550   15.9997   22.1948 Cl     28  UNL28      -0.0870
    432 CL         11.2544   13.3935   22.1948 Cl     28  UNL28      -0.0870
    433 CL          9.6476   15.8231   22.1947 Cl     28  UNL28      -0.0870
    434 C          11.1524   15.0720   21.6373 C.3    28  UNL28       0.1805
    435 H          11.1525   15.0720   20.5443 H      28  UNL28       0.0806
    436 CL         15.0123   -1.4994   -1.5319 Cl     28  UNL28      -0.0870
    437 CL         13.7026    0.9489   -0.6517 Cl     28  UNL28      -0.0870
    438 CL         16.6107    0.7921   -0.7082 Cl     28  UNL28      -0.0870
    439 C          15.1084    0.2691   -1.4885 C.3    28  UNL28       0.1805
    440 H          15.1084    0.6388   -2.5171 H      28  UNL28       0.0806
    441 CL         14.6710   -0.3253    5.3179 Cl     28  UNL28      -0.0870
    442 CL         17.5391   -0.8330    5.3179 Cl     28  UNL28      -0.0870
    443 CL         15.6652   -3.0631    5.3178 Cl     28  UNL28      -0.0870
    444 C          15.9585   -1.4070    4.7604 C.3    28  UNL28       0.1805
    445 H          15.9584   -1.4070    3.6674 H      28  UNL28       0.0806
    446 CL         13.9699   -2.5141   24.7719 Cl     28  UNL28      -0.0870
    447 CL         14.6838   -0.0133   26.0835 Cl     28  UNL28      -0.0870
    448 CL         16.2165   -2.4307   26.6238 Cl     28  UNL28      -0.0870
    449 C          15.2997   -1.5294   25.4046 C.3    28  UNL28       0.1805
    450 H          15.9724   -1.2878   24.5777 H      28  UNL28       0.0806
    451 CL         17.4341    3.6599    1.9425 Cl     28  UNL28      -0.0870
    452 CL         16.1335    1.0536    1.9425 Cl     28  UNL28      -0.0870
    453 CL         14.5266    3.4832    1.9424 Cl     28  UNL28      -0.0870
    454 C          16.0315    2.7321    1.3850 C.3    28  UNL28       0.1805
    455 H          16.0316    2.7322    0.2920 H      28  UNL28       0.0806
    456 CL         14.1780    5.7640    5.0309 Cl     28  UNL28      -0.0870
    457 CL         17.0462    5.2563    5.0309 Cl     28  UNL28      -0.0870
    458 CL         15.1722    3.0262    5.0308 Cl     28  UNL28      -0.0870
    459 C          15.4655    4.6823    4.4734 C.3    28  UNL28       0.1805
    460 H          15.4655    4.6823    3.3804 H      28  UNL28       0.0806
    461 CL         15.3788    3.5640    8.6933 Cl     28  UNL28      -0.0870
    462 CL         18.2468    3.0562    8.6933 Cl     28  UNL28      -0.0870
    463 CL         16.3729    0.8262    8.6932 Cl     28  UNL28      -0.0870
    464 C          16.6662    2.4822    8.1358 C.3    28  UNL28       0.1805
    465 H          16.6661    2.4823    7.0428 H      28  UNL28       0.0806
    466 CL         17.3610    3.8759   12.0686 Cl     28  UNL28      -0.0870
    467 CL         16.0605    1.2696   12.0686 Cl     28  UNL28      -0.0870
    468 CL         14.4537    3.6992   12.0685 Cl     28  UNL28      -0.0870
    469 C          15.9585    2.9481   11.5111 C.3    28  UNL28       0.1805
    470 H          15.9585    2.9482   10.4181 H      28  UNL28       0.0806
    471 CL         14.6710    4.0010   15.4440 Cl     28  UNL28      -0.0870
    472 CL         17.5391    3.4933   15.4440 Cl     28  UNL28      -0.0870
    473 CL         15.6652    1.2632   15.4439 Cl     28  UNL28      -0.0870
    474 C          15.9585    2.9193   14.8865 C.3    28  UNL28       0.1805
    475 H          15.9584    2.9193   13.7935 H      28  UNL28       0.0806
    476 CL         17.3620    3.8789   18.8194 Cl     28  UNL28      -0.0870
    477 CL         16.0615    1.2726   18.8194 Cl     28  UNL28      -0.0870
    478 CL         14.4547    3.7022   18.8193 Cl     28  UNL28      -0.0870
    479 C          15.9595    2.9511   18.2619 C.3    28  UNL28       0.1805
    480 H          15.9595    2.9512   17.1689 H      28  UNL28       0.0806
    481 CL         17.4560    3.8369   23.5070 Cl     28  UNL28      -0.0870
    482 CL         16.1555    1.2306   23.5070 Cl     28  UNL28      -0.0870
    483 CL         14.5487    3.6602   23.5069 Cl     28  UNL28      -0.0870
    484 C          16.0535    2.9091   22.9495 C.3    28  UNL28       0.1805
    485 H          16.0536    2.9092   21.8565 H      28  UNL28       0.0806
    486 CL         15.8623    8.2494   -0.8914 Cl     28  UNL28      -0.0870
    487 CL         14.5526    6.6924    1.1929 Cl     28  UNL28      -0.0870
    488 CL         17.4607    6.7922    1.0594 Cl     28  UNL28      -0.0870
    489 C          15.9584    7.6913    0.7873 C.3    28  UNL28       0.1805
    490 H          15.9584    8.5670    1.4413 H      28  UNL28       0.0806
    491 CL         13.2148    8.2138    5.3387 Cl     28  UNL28      -0.0870
    492 CL         14.0841   10.4717    6.9607 Cl     28  UNL28      -0.0870
    493 CL         15.6067    9.7026    4.5995 Cl     28  UNL28      -0.0870
    494 C          13.9920    9.8058    5.3215 C.3    28  UNL28       0.1805
    495 H          13.3845   10.4784    4.7106 H      28  UNL28       0.0806
    496 CL         14.6710    8.5842    8.6933 Cl     28  UNL28      -0.0870
    497 CL         17.5391    8.0764    8.6933 Cl     28  UNL28      -0.0870
    498 CL         15.6652    5.8463    8.6932 Cl     28  UNL28      -0.0870
    499 C          15.9585    7.5024    8.1358 C.3    28  UNL28       0.1805
    500 H          15.9584    7.5025    7.0428 H      28  UNL28       0.0806
    501 CL         14.6710    8.8123   12.0686 Cl     28  UNL28      -0.0870
    502 CL         17.5391    8.3045   12.0686 Cl     28  UNL28      -0.0870
    503 CL         15.6652    6.0745   12.0685 Cl     28  UNL28      -0.0870
    504 C          15.9585    7.7305   11.5111 C.3    28  UNL28       0.1805
    505 H          15.9584    7.7306   10.4181 H      28  UNL28       0.0806
    506 CL         17.3610    8.6251   15.4440 Cl     28  UNL28      -0.0870
    507 CL         16.0605    6.0188   15.4440 Cl     28  UNL28      -0.0870
    508 CL         14.4537    8.4484   15.4439 Cl     28  UNL28      -0.0870
    509 C          15.9585    7.6974   14.8865 C.3    28  UNL28       0.1805
    510 H          15.9585    7.6974   13.7935 H      28  UNL28       0.0806
    511 CL         14.6710    8.6933   18.8194 Cl     28  UNL28      -0.0870
    512 CL         17.5391    8.1855   18.8194 Cl     28  UNL28      -0.0870
    513 CL         15.6652    5.9555   18.8193 Cl     28  UNL28      -0.0870
    514 C          15.9585    7.6115   18.2619 C.3    28  UNL28       0.1805
    515 H          15.9584    7.6116   17.1689 H      28  UNL28       0.0806
    516 CL         14.5399    8.6703   22.1948 Cl     28  UNL28      -0.0870
    517 CL         17.4081    8.1626   22.1948 Cl     28  UNL28      -0.0870
    518 CL         15.5341    5.9325   22.1947 Cl     28  UNL28      -0.0870
    519 C          15.8274    7.5885   21.6373 C.3    28  UNL28       0.1805
    520 H          15.8274    7.5886   20.5443 H      28  UNL28       0.0806
    521 CL         13.1380    7.5446   24.4081 Cl     28  UNL28      -0.0870
    522 CL         13.8520   10.0455   25.7197 Cl     28  UNL28      -0.0870
    523 CL         15.3847    7.6280   26.2600 Cl     28  UNL28      -0.0870
    524 C          14.4679    8.5295   25.0408 C.3    28  UNL28       0.1805
    525 H          15.1405    8.7711   24.2139 H      28  UNL28       0.0806
    526 CL         18.0687   13.1275   -0.3099 Cl     28  UNL28      -0.0870
    527 CL         16.7682   10.5212   -0.3099 Cl     28  UNL28      -0.0870
    528 CL         15.1617   12.9508   -0.3100 Cl     28  UNL28      -0.0870
    529 C          16.6662   12.1997   -0.8674 C.3    28  UNL28       0.1805
    530 H          16.6663   12.1998   -1.9604 H      28  UNL28       0.0806
    531 CL         15.7322   13.0150    2.2815 Cl     28  UNL28      -0.0870
    532 CL         14.4225   15.6167    2.2815 Cl     28  UNL28      -0.0870
    533 CL         17.3306   15.4500    2.2814 Cl     28  UNL28      -0.0870
    534 C          15.8283   14.6939    1.7240 C.3    28  UNL28       0.1805
    535 H          15.8283   14.6938    0.6310 H      28  UNL28       0.0806
    536 CL         17.0325   13.7181    4.3245 Cl     28  UNL28      -0.0870
    537 CL         15.4666   14.3661    6.6934 Cl     28  UNL28      -0.0870
    538 CL         17.7033   16.0627    5.9172 Cl     28  UNL28      -0.0870
    539 C          16.3909   15.0254    5.3335 C.3    28  UNL28       0.1805
    540 H          15.7184   15.6328    4.7226 H      28  UNL28       0.0806
    541 CL         17.6290   12.8763    8.6933 Cl     28  UNL28      -0.0870
    542 CL         16.3284   10.2701    8.6933 Cl     28  UNL28      -0.0870
    543 CL         14.7216   12.6997    8.6932 Cl     28  UNL28      -0.0870
    544 C          16.2264   11.9486    8.1358 C.3    28  UNL28       0.1805
    545 H          16.2265   11.9486    7.0428 H      28  UNL28       0.0806
    546 CL         14.5959   12.7631   11.6275 Cl     28  UNL28      -0.0870
    547 CL         15.4651   15.0209   13.2495 Cl     28  UNL28      -0.0870
    548 CL         16.9878   14.2519   10.8883 Cl     28  UNL28      -0.0870
    549 C          15.3730   14.3551   11.6103 C.3    28  UNL28       0.1805
    550 H          14.7655   15.0277   10.9995 H      28  UNL28       0.0806
    551 CL         14.6710   13.4855   15.4440 Cl     28  UNL28      -0.0870
    552 CL         17.5391   12.9778   15.4440 Cl     28  UNL28      -0.0870
    553 CL         15.6652   10.7477   15.4439 Cl     28  UNL28      -0.0870
    554 C          15.9585   12.4038   14.8865 C.3    28  UNL28       0.1805
    555 H          15.9584   12.4039   13.7935 H      28  UNL28       0.0806
    556 CL         17.3610   13.3355   18.8194 Cl     28  UNL28      -0.0870
    557 CL         16.0605   10.7292   18.8194 Cl     28  UNL28      -0.0870
    558 CL         14.4537   13.1588   18.8193 Cl     28  UNL28      -0.0870
    559 C          15.9585   12.4077   18.2619 C.3    28  UNL28       0.1805
    560 H          15.9585   12.4078   17.1689 H      28  UNL28       0.0806
    561 CL         17.3610   13.3064   22.1938 Cl     28  UNL28      -0.0870
    562 CL         16.0605   10.7001   22.1938 Cl     28  UNL28      -0.0870
    563 CL         14.4537   13.1297   22.1937 Cl     28  UNL28      -0.0870
    564 C          15.9585   12.3787   21.6363 C.3    28  UNL28       0.1805
    565 H          15.9585   12.3787   20.5433 H      28  UNL28       0.0806
    566 CL         12.7899   13.8310   24.2394 Cl     28  UNL28      -0.0870
    567 CL         15.4542   13.2065   25.2372 Cl     28  UNL28      -0.0870
    568 CL         14.7234   15.9675   24.6649 Cl     28  UNL28      -0.0870
    569 C          14.1407   14.3953   25.2373 C.3    28  UNL28       0.1805
    570 H          13.7839   14.5137   26.2637 H      28  UNL28       0.0806
    571 CL         19.9519   -1.0010    3.0422 Cl     28  UNL28      -0.0870
    572 CL         20.4025   -0.3530    0.2384 Cl     28  UNL28      -0.0870
    573 CL         18.6843    1.3437    1.8675 Cl     28  UNL28      -0.0870
    574 C          20.1206    0.3063    1.8585 C.3    28  UNL28       0.1805
    575 H          20.9853    0.9137    2.1379 H      28  UNL28       0.0806
    576 CL         21.7224    2.1426    5.3209 Cl     28  UNL28      -0.0870
    577 CL         20.4218   -0.4637    5.3209 Cl     28  UNL28      -0.0870
    578 CL         18.8150    1.9659    5.3208 Cl     28  UNL28      -0.0870
    579 C          20.3198    1.2148    4.7634 C.3    28  UNL28       0.1805
    580 H          20.3199    1.2149    3.6704 H      28  UNL28       0.0806
    581 CL         21.1049   -1.3020    8.3455 Cl     28  UNL28      -0.0870
    582 CL         21.8887    1.2997    9.3948 Cl     28  UNL28      -0.0870
    583 CL         20.1483    1.1330    7.0650 Cl     28  UNL28      -0.0870
    584 C          20.6008    0.3769    8.6022 C.3    28  UNL28       0.1805
    585 H          19.7251    0.3768    9.2563 H      28  UNL28       0.0806
    586 CL         19.2057    1.4202   12.0686 Cl     28  UNL28      -0.0870
    587 CL         22.1184    1.4253   12.0686 Cl     28  UNL28      -0.0870
    588 CL         20.6664   -1.0999   12.0685 Cl     28  UNL28      -0.0870
    589 C          20.6636    0.5820   11.5111 C.3    28  UNL28       0.1805
    590 H          20.6635    0.5820   10.4181 H      28  UNL28       0.0806
    591 CL         22.1671    1.5096   15.4440 Cl     28  UNL28      -0.0870
    592 CL         20.8666   -1.0967   15.4440 Cl     28  UNL28      -0.0870
    593 CL         19.2597    1.3329   15.4439 Cl     28  UNL28      -0.0870
    594 C          20.7645    0.5818   14.8865 C.3    28  UNL28       0.1805
    595 H          20.7646    0.5819   13.7935 H      28  UNL28       0.0806
    596 CL         22.1671    1.5096   18.8194 Cl     28  UNL28      -0.0870
    597 CL         20.8666   -1.0967   18.8194 Cl     28  UNL28      -0.0870
    598 CL         19.2597    1.3329   18.8193 Cl     28  UNL28      -0.0870
    599 C          20.7645    0.5818   18.2619 C.3    28  UNL28       0.1805
    600 H          20.7646    0.5819   17.1689 H      28  UNL28       0.0806
    601 CL         22.1131    1.5096   22.1948 Cl     28  UNL28      -0.0870
    602 CL         20.8126   -1.0967   22.1948 Cl     28  UNL28      -0.0870
    603 CL         19.2058    1.3329   22.1947 Cl     28  UNL28      -0.0870
    604 C          20.7106    0.5818   21.6373 C.3    28  UNL28       0.1805
    605 H          20.7107    0.5819   20.5443 H      28  UNL28       0.0806
    606 CL         22.1671    5.6769    1.7025 Cl     28  UNL28      -0.0870
    607 CL         20.8666    3.0706    1.7025 Cl     28  UNL28      -0.0870
    608 CL         19.2597    5.5002    1.7024 Cl     28  UNL28      -0.0870
    609 C          20.7645    4.7492    1.1450 C.3    28  UNL28       0.1805
    610 H          20.7646    4.7492    0.0520 H      28  UNL28       0.0806
    611 CL         20.8630    4.3892    3.9785 Cl     28  UNL28      -0.0870
    612 CL         19.2969    5.0372    6.3474 Cl     28  UNL28      -0.0870
    613 CL         21.5338    6.7339    5.5712 Cl     28  UNL28      -0.0870
    614 C          20.2214    5.6965    4.9875 C.3    28  UNL28       0.1805
    615 H          19.5487    6.3039    4.3766 H      28  UNL28       0.0806
    616 CL         22.5519    6.0849    8.8933 Cl     28  UNL28      -0.0870
    617 CL         21.2513    3.4786    8.8933 Cl     28  UNL28      -0.0870
    618 CL         19.6445    5.9082    8.8932 Cl     28  UNL28      -0.0870
    619 C          21.1493    5.1571    8.3358 C.3    28  UNL28       0.1805
    620 H          21.1494    5.1572    7.2428 H      28  UNL28       0.0806
    621 CL         22.0312    6.0859   12.0686 Cl     28  UNL28      -0.0870
    622 CL         20.7306    3.4796   12.0686 Cl     28  UNL28      -0.0870
    623 CL         19.1238    5.9092   12.0685 Cl     28  UNL28      -0.0870
    624 C          20.6286    5.1581   11.5111 C.3    28  UNL28       0.1805
    625 H          20.6287    5.1582   10.4181 H      28  UNL28       0.0806
    626 CL         22.1671    6.2889   15.4440 Cl     28  UNL28      -0.0870
    627 CL         20.8666    3.6826   15.4440 Cl     28  UNL28      -0.0870
    628 CL         19.2597    6.1122   15.4439 Cl     28  UNL28      -0.0870
    629 C          20.7645    5.3611   14.8865 C.3    28  UNL28       0.1805
    630 H          20.7646    5.3612   13.7935 H      28  UNL28       0.0806
    631 CL         22.1671    6.0859   18.8194 Cl     28  UNL28      -0.0870
    632 CL         20.8666    3.4796   18.8194 Cl     28  UNL28      -0.0870
    633 CL         19.2597    5.9092   18.8193 Cl     28  UNL28      -0.0870
    634 C          20.7645    5.1581   18.2619 C.3    28  UNL28       0.1805
    635 H          20.7646    5.1582   17.1689 H      28  UNL28       0.0806
    636 CL         22.1671    6.0859   22.1948 Cl     28  UNL28      -0.0870
    637 CL         20.8666    3.4796   22.1948 Cl     28  UNL28      -0.0870
    638 CL         19.2597    5.9092   22.1947 Cl     28  UNL28      -0.0870
    639 C          20.7645    5.1581   21.6373 C.3    28  UNL28       0.1805
    640 H          20.7646    5.1582   20.5443 H      28  UNL28       0.0806
    641 CL         19.2274    8.1948   -0.5073 Cl     28  UNL28      -0.0870
    642 CL         20.1036   10.5014   -2.0553 Cl     28  UNL28      -0.0870
    643 CL         21.9968    9.0842   -0.3546 Cl     28  UNL28      -0.0870
    644 C          20.5737    8.9248   -1.3980 C.3    28  UNL28       0.1805
    645 H          20.8309    8.2671   -2.2322 H      28  UNL28       0.0806
    646 CL         21.8743   11.2224    1.9425 Cl     28  UNL28      -0.0870
    647 CL         20.5737    8.6161    1.9425 Cl     28  UNL28      -0.0870
    648 CL         18.9669   11.0457    1.9424 Cl     28  UNL28      -0.0870
    649 C          20.4717   10.2946    1.3850 C.3    28  UNL28       0.1805
    650 H          20.4718   10.2947    0.2920 H      28  UNL28       0.0806
    651 CL         19.0553    9.3464    6.2769 Cl     28  UNL28      -0.0870
    652 CL         17.7456    9.9061    3.7361 Cl     28  UNL28      -0.0870
    653 CL         20.6537    9.8701    3.8988 Cl     28  UNL28      -0.0870
    654 C          19.1514    9.1631    4.5173 C.3    28  UNL28       0.1805
    655 H          19.1514    8.0957    4.2823 H      28  UNL28       0.0806
    656 CL         22.2671   10.6622    8.6933 Cl     28  UNL28      -0.0870
    657 CL         20.9665    8.0559    8.6933 Cl     28  UNL28      -0.0870
    658 CL         19.3597   10.4855    8.6932 Cl     28  UNL28      -0.0870
    659 C          20.8645    9.7344    8.1358 C.3    28  UNL28       0.1805
    660 H          20.8646    9.7345    7.0428 H      28  UNL28       0.0806
    661 CL         21.7643   10.6632   12.0686 Cl     28  UNL28      -0.0870
    662 CL         20.4638    8.0569   12.0686 Cl     28  UNL28      -0.0870
    663 CL         18.8569   10.4865   12.0685 Cl     28  UNL28      -0.0870
    664 C          20.3618    9.7354   11.5111 C.3    28  UNL28       0.1805
    665 H          20.3618    9.7355   10.4181 H      28  UNL28       0.0806
    666 CL         22.1671   10.6622   15.4440 Cl     28  UNL28      -0.0870
    667 CL         20.8666    8.0559   15.4440 Cl     28  UNL28      -0.0870
    668 CL         19.2597   10.4855   15.4439 Cl     28  UNL28      -0.0870
    669 C          20.7645    9.7344   14.8865 C.3    28  UNL28       0.1805
    670 H          20.7646    9.7345   13.7935 H      28  UNL28       0.0806
    671 CL         22.1671   10.6622   18.8194 Cl     28  UNL28      -0.0870
    672 CL         20.8666    8.0559   18.8194 Cl     28  UNL28      -0.0870
    673 CL         19.2597   10.4855   18.8193 Cl     28  UNL28      -0.0870
    674 C          20.7645    9.7344   18.2619 C.3    28  UNL28       0.1805
    675 H          20.7646    9.7345   17.1689 H      28  UNL28       0.0806
    676 CL         22.0782   10.6622   22.1948 Cl     28  UNL28      -0.0870
    677 CL         20.7776    8.0559   22.1948 Cl     28  UNL28      -0.0870
    678 CL         19.1708   10.4855   22.1947 Cl     28  UNL28      -0.0870
    679 C          20.6756    9.7344   21.6373 C.3    28  UNL28       0.1805
    680 H          20.6757    9.7345   20.5443 H      28  UNL28       0.0806
    681 CL         19.5563   10.6055   24.9982 Cl     28  UNL28      -0.0870
    682 CL         18.0638    8.3478   26.0749 Cl     28  UNL28      -0.0870
    683 CL         16.8939   11.0152   26.1064 Cl     28  UNL28      -0.0870
    684 C          17.9481    9.8974   25.2241 C.3    28  UNL28       0.1805
    685 H          17.5103    9.7171   24.2389 H      28  UNL28       0.0806
    686 CL         19.4760   16.8393    1.7555 Cl     28  UNL28      -0.0870
    687 CL         22.3442   16.3321    1.7555 Cl     28  UNL28      -0.0870
    688 CL         20.4703   14.1023    1.7554 Cl     28  UNL28      -0.0870
    689 C          20.7636   15.7584    1.1980 C.3    28  UNL28       0.1805
    690 H          20.7635   15.7584    0.1050 H      28  UNL28       0.0806
    691 CL         19.5752   12.9327    5.7827 Cl     28  UNL28      -0.0870
    692 CL         19.6597   15.0216    3.7545 Cl     28  UNL28      -0.0870
    693 CL         21.5786   15.0407    5.9459 Cl     28  UNL28      -0.0870
    694 C          20.6213   14.0223    4.8570 C.3    28  UNL28       0.1805
    695 H          21.3080   13.4158    4.2611 H      28  UNL28       0.0806
    696 CL         21.7413   15.2394    8.6933 Cl     28  UNL28      -0.0870
    697 CL         20.4408   12.6332    8.6933 Cl     28  UNL28      -0.0870
    698 CL         18.8340   15.0627    8.6932 Cl     28  UNL28      -0.0870
    699 C          20.3388   14.3117    8.1358 C.3    28  UNL28       0.1805
    700 H          20.3389   14.3117    7.0428 H      28  UNL28       0.0806
    701 CL         19.1471   15.3925   12.0686 Cl     28  UNL28      -0.0870
    702 CL         22.0152   14.8848   12.0686 Cl     28  UNL28      -0.0870
    703 CL         20.1413   12.6547   12.0685 Cl     28  UNL28      -0.0870
    704 C          20.4346   14.3108   11.5111 C.3    28  UNL28       0.1805
    705 H          20.4345   14.3109   10.4181 H      28  UNL28       0.0806
    706 CL         22.1671   15.2384   15.4440 Cl     28  UNL28      -0.0870
    707 CL         20.8666   12.6322   15.4440 Cl     28  UNL28      -0.0870
    708 CL         19.2597   15.0617   15.4439 Cl     28  UNL28      -0.0870
    709 C          20.7645   14.3107   14.8865 C.3    28  UNL28       0.1805
    710 H          20.7646   14.3107   13.7935 H      28  UNL28       0.0806
    711 CL         22.1671   15.6816   18.8194 Cl     28  UNL28      -0.0870
    712 CL         20.8666   13.0753   18.8194 Cl     28  UNL28      -0.0870
    713 CL         19.2597   15.5049   18.8193 Cl     28  UNL28      -0.0870
    714 C          20.7645   14.7539   18.2619 C.3    28  UNL28       0.1805
    715 H          20.7646   14.7539   17.1689 H      28  UNL28       0.0806
    716 CL         22.1671   15.2384   22.1948 Cl     28  UNL28      -0.0870
    717 CL         20.8666   12.6322   22.1948 Cl     28  UNL28      -0.0870
    718 CL         19.2597   15.0617   22.1947 Cl     28  UNL28      -0.0870
    719 C          20.7645   14.3107   21.6373 C.3    28  UNL28       0.1805
    720 H          20.7646   14.3107   20.5443 H      28  UNL28       0.0806
    721 CL         25.2942    0.0759    1.2634 Cl     28  UNL28      -0.0870
    722 CL         22.8862   -0.1587    2.8853 Cl     28  UNL28      -0.0870
    723 CL         22.8915    1.5471    0.5242 Cl     28  UNL28      -0.0870
    724 C          23.5228    0.0574    1.2462 C.3    28  UNL28       0.1805
    725 H          23.1937   -0.7871    0.6353 H      28  UNL28       0.0806
    726 CL         24.5261    1.9619    4.3356 Cl     28  UNL28      -0.0870
    727 CL         26.7324    0.3952    5.4135 Cl     28  UNL28      -0.0870
    728 CL         24.1147   -0.8308    5.0539 Cl     28  UNL28      -0.0870
    729 C          25.2675    0.3550    4.4180 C.3    28  UNL28       0.1805
    730 H          25.5478    0.0533    3.4055 H      28  UNL28       0.0806
    731 CL         23.6915   -0.9167    9.3664 Cl     28  UNL28      -0.0870
    732 CL         23.2758    1.3433    7.5766 Cl     28  UNL28      -0.0870
    733 CL         25.4390   -0.5396    7.0669 Cl     28  UNL28      -0.0870
    734 C          23.7922   -0.3474    7.6918 C.3    28  UNL28       0.1805
    735 H          23.1195   -0.9549    7.0810 H      28  UNL28       0.0806
    736 CL         27.3549    2.3416   10.1986 Cl     28  UNL28      -0.0870
    737 CL         26.0544   -0.2647   10.1986 Cl     28  UNL28      -0.0870
    738 CL         24.4475    2.1649   10.1985 Cl     28  UNL28      -0.0870
    739 C          25.9524    1.4138    9.6411 C.3    28  UNL28       0.1805
    740 H          25.9524    1.4139    8.5481 H      28  UNL28       0.0806
    741 CL         25.5494    0.1909   13.3541 Cl     28  UNL28      -0.0870
    742 CL         24.2397   -1.3662   15.4384 Cl     28  UNL28      -0.0870
    743 CL         27.1478   -1.2663   15.3050 Cl     28  UNL28      -0.0870
    744 C          25.6455   -0.3673   15.0328 C.3    28  UNL28       0.1805
    745 H          25.6455    0.5085   15.6868 H      28  UNL28       0.0806
    746 CL         26.6993   -0.7304   18.7934 Cl     28  UNL28      -0.0870
    747 CL         25.3988   -3.3367   18.7934 Cl     28  UNL28      -0.0870
    748 CL         23.7920   -0.9071   18.7933 Cl     28  UNL28      -0.0870
    749 C          25.2968   -1.6582   18.2359 C.3    28  UNL28       0.1805
    750 H          25.2969   -1.6581   17.1429 H      28  UNL28       0.0806
    751 CL         26.9732   -0.6274   22.1948 Cl     28  UNL28      -0.0870
    752 CL         25.6726   -3.2337   22.1948 Cl     28  UNL28      -0.0870
    753 CL         24.0658   -0.8041   22.1947 Cl     28  UNL28      -0.0870
    754 C          25.5706   -1.5552   21.6373 C.3    28  UNL28       0.1805
    755 H          25.5707   -1.5551   20.5443 H      28  UNL28       0.0806
    756 CL         27.3760    4.5699    2.6265 Cl     28  UNL28      -0.0870
    757 CL         26.0754    1.9636    2.6265 Cl     28  UNL28      -0.0870
    758 CL         24.4686    4.3932    2.6264 Cl     28  UNL28      -0.0870
    759 C          25.9734    3.6421    2.0690 C.3    28  UNL28       0.1805
    760 H          25.9735    3.6422    0.9760 H      28  UNL28       0.0806
    761 CL         27.1921    7.0248    4.8699 Cl     28  UNL28      -0.0870
    762 CL         25.8915    4.4185    4.8699 Cl     28  UNL28      -0.0870
    763 CL         24.2847    6.8481    4.8698 Cl     28  UNL28      -0.0870
    764 C          25.7895    6.0971    4.3124 C.3    28  UNL28       0.1805
    765 H          25.7896    6.0971    3.2194 H      28  UNL28       0.0806
    766 CL         26.2088    3.4793    8.1374 Cl     28  UNL28      -0.0870
    767 CL         26.9926    6.0810    9.1867 Cl     28  UNL28      -0.0870
    768 CL         25.2522    5.9143    6.8570 Cl     28  UNL28      -0.0870
    769 C          25.7047    5.1582    8.3941 C.3    28  UNL28       0.1805
    770 H          24.8290    5.1581    9.0482 H      28  UNL28       0.0806
    771 CL         25.9671    3.0483   12.0686 Cl     28  UNL28      -0.0870
    772 CL         24.6574    5.6500   12.0686 Cl     28  UNL28      -0.0870
    773 CL         27.5655    5.4833   12.0685 Cl     28  UNL28      -0.0870
    774 C          26.0632    4.7272   11.5111 C.3    28  UNL28       0.1805
    775 H          26.0632    4.7272   10.4181 H      28  UNL28       0.0806
    776 CL         23.4825    4.8610   15.3420 Cl     28  UNL28      -0.0870
    777 CL         26.3507    4.3533   15.3420 Cl     28  UNL28      -0.0870
    778 CL         24.4768    2.1232   15.3419 Cl     28  UNL28      -0.0870
    779 C          24.7701    3.7793   14.7845 C.3    28  UNL28       0.1805
    780 H          24.7700    3.7793   13.6915 H      28  UNL28       0.0806
    781 CL         24.2821    4.1520   18.8194 Cl     28  UNL28      -0.0870
    782 CL         27.1503    3.6443   18.8194 Cl     28  UNL28      -0.0870
    783 CL         25.2763    1.4142   18.8193 Cl     28  UNL28      -0.0870
    784 C          25.5697    3.0703   18.2619 C.3    28  UNL28       0.1805
    785 H          25.5696    3.0703   17.1689 H      28  UNL28       0.0806
    786 CL         23.9433    4.2740   22.1948 Cl     28  UNL28      -0.0870
    787 CL         26.8115    3.7663   22.1948 Cl     28  UNL28      -0.0870
    788 CL         24.9375    1.5362   22.1947 Cl     28  UNL28      -0.0870
    789 C          25.2308    3.1923   21.6373 C.3    28  UNL28       0.1805
    790 H          25.2308    3.1923   20.5443 H      28  UNL28       0.0806
    791 CL         24.0792    9.0003    1.3415 Cl     28  UNL28      -0.0870
    792 CL         26.9474    8.4925    1.3415 Cl     28  UNL28      -0.0870
    793 CL         25.0734    6.2625    1.3414 Cl     28  UNL28      -0.0870
    794 C          25.3668    7.9185    0.7840 C.3    28  UNL28       0.1805
    795 H          25.3667    7.9186   -0.3090 H      28  UNL28       0.0806
    796 CL         24.7962   11.6122    5.7569 Cl     28  UNL28      -0.0870
    797 CL         23.4957    9.0059    5.7569 Cl     28  UNL28      -0.0870
    798 CL         21.8888   11.4355    5.7567 Cl     28  UNL28      -0.0870
    799 C          23.3936   10.6844    5.1993 C.3    28  UNL28       0.1805
    800 H          23.3937   10.6845    4.1063 H      28  UNL28       0.0806
    801 CL         25.9580    8.0976    7.9103 Cl     28  UNL28      -0.0870
    802 CL         26.7418   10.6993    6.8610 Cl     28  UNL28      -0.0870
    803 CL         25.0015   10.5326    9.1909 Cl     28  UNL28      -0.0870
    804 C          26.3471    9.7765    8.3209 C.3    28  UNL28       0.1805
    805 H          27.2228    9.7764    8.9750 H      28  UNL28       0.0806
    806 CL         26.4429    8.0566   12.1327 Cl     28  UNL28      -0.0870
    807 CL         25.1332   10.6583   12.1327 Cl     28  UNL28      -0.0870
    808 CL         28.0413   10.4916   12.1326 Cl     28  UNL28      -0.0870
    809 C          26.5390    9.7355   11.5752 C.3    28  UNL28       0.1805
    810 H          26.5390    9.7354   10.4822 H      28  UNL28       0.0806
    811 CL         24.2841    9.2283   15.6521 Cl     28  UNL28      -0.0870
    812 CL         27.1523    8.7205   15.6521 Cl     28  UNL28      -0.0870
    813 CL         25.2783    6.4905   15.6520 Cl     28  UNL28      -0.0870
    814 C          25.5716    8.1465   15.0946 C.3    28  UNL28       0.1805
    815 H          25.5716    8.1466   14.0016 H      28  UNL28       0.0806
    816 CL         24.2841    9.0003   18.8194 Cl     28  UNL28      -0.0870
    817 CL         27.1523    8.4925   18.8194 Cl     28  UNL28      -0.0870
    818 CL         25.2783    6.2625   18.8193 Cl     28  UNL28      -0.0870
    819 C          25.5716    7.9185   18.2619 C.3    28  UNL28       0.1805
    820 H          25.5716    7.9186   17.1689 H      28  UNL28       0.0806
    821 CL         24.2391    9.0003   22.1948 Cl     28  UNL28      -0.0870
    822 CL         27.1073    8.4925   22.1948 Cl     28  UNL28      -0.0870
    823 CL         25.2334    6.2625   22.1947 Cl     28  UNL28      -0.0870
    824 C          25.5267    7.9185   21.6373 C.3    28  UNL28       0.1805
    825 H          25.5266    7.9186   20.5443 H      28  UNL28       0.0806
    826 CL         24.2831   13.7227    1.9425 Cl     28  UNL28      -0.0870
    827 CL         27.1513   13.2149    1.9425 Cl     28  UNL28      -0.0870
    828 CL         25.2773   10.9849    1.9424 Cl     28  UNL28      -0.0870
    829 C          25.5707   12.6409    1.3850 C.3    28  UNL28       0.1805
    830 H          25.5706   12.6410    0.2920 H      28  UNL28       0.0806
    831 CL         23.4030   13.3763    4.4128 Cl     28  UNL28      -0.0870
    832 CL         24.2722   15.6342    6.0348 Cl     28  UNL28      -0.0870
    833 CL         25.7949   14.8652    3.6736 Cl     28  UNL28      -0.0870
    834 C          24.1801   14.9683    4.3956 C.3    28  UNL28       0.1805
    835 H          23.5726   15.6409    3.7847 H      28  UNL28       0.0806
    836 CL         26.4276   13.0738    7.2399 Cl     28  UNL28      -0.0870
    837 CL         24.8616   13.7218    9.6088 Cl     28  UNL28      -0.0870
    838 CL         27.0985   15.4185    8.8326 Cl     28  UNL28      -0.0870
    839 C          25.7860   14.3811    8.2489 C.3    28  UNL28       0.1805
    840 H          25.1134   14.9885    7.6380 H      28  UNL28       0.0806
    841 CL         27.4869   16.7453   12.1177 Cl     28  UNL28      -0.0870
    842 CL         26.1863   14.1398   12.1177 Cl     28  UNL28      -0.0870
    843 CL         24.5795   16.5688   12.1176 Cl     28  UNL28      -0.0870
    844 C          26.0843   15.8183   11.5602 C.3    28  UNL28       0.1805
    845 H          26.0844   15.8183   10.4672 H      28  UNL28       0.0806
    846 CL         26.9732   13.8744   15.6181 Cl     28  UNL28      -0.0870
    847 CL         25.6726   11.2682   15.6181 Cl     28  UNL28      -0.0870
    848 CL         24.0658   13.6978   15.6180 Cl     28  UNL28      -0.0870
    849 C          25.5706   12.9467   15.0606 C.3    28  UNL28       0.1805
    850 H          25.5707   12.9467   13.9676 H      28  UNL28       0.0806
    851 CL         26.9732   13.7737   18.8194 Cl     28  UNL28      -0.0870
    852 CL         25.6726   11.1674   18.8194 Cl     28  UNL28      -0.0870
    853 CL         24.0658   13.5970   18.8193 Cl     28  UNL28      -0.0870
    854 C          25.5706   12.8459   18.2619 C.3    28  UNL28       0.1805
    855 H          25.5707   12.8459   17.1689 H      28  UNL28       0.0806
    856 CL         26.9742   13.5476   22.1948 Cl     28  UNL28      -0.0870
    857 CL         25.6736   10.9413   22.1948 Cl     28  UNL28      -0.0870
    858 CL         24.0668   13.3709   22.1947 Cl     28  UNL28      -0.0870
    859 C          25.5716   12.6198   21.6373 C.3    28  UNL28       0.1805
    860 H          25.5717   12.6199   20.5443 H      28  UNL28       0.0806
@<TRIPOS>BOND
     1     1     4    1
     2     2     4    1
     3     3     4    1
     4     4     5    1
     5     6     9    1
     6     7     9    1
     7     8     9    1
     8     9    10    1
     9    11    14    1
    10    12    14    1
    11    13    14    1
    12    14    15    1
    13    16    19    1
    14    17    19    1
    15    18    19    1
    16    19    20    1
    17    21    24    1
    18    22    24    1
    19    23    24    1
    20    24    25    1
    21    26    29    1
    22    27    29    1
    23    28    29    1
    24    29    30    1
    25    31    34    1
    26    32    34    1
    27    33    34    1
    28    34    35    1
    29    36    39    1
    30    37    39    1
    31    38    39    1
    32    39    40    1
    33    41    44    1
    34    42    44    1
    35    43    44    1
    36    44    45    1
    37    46    49    1
    38    47    49    1
    39    48    49    1
    40    49    50    1
    41    51    54    1
    42    52    54    1
    43    53    54    1
    44    54    55    1
    45    56    59    1
    46    57    59    1
    47    58    59    1
    48    59    60    1
    49    61    64    1
    50    62    64    1
    51    63    64    1
    52    64    65    1
    53    66    69    1
    54    67    69    1
    55    68    69    1
    56    69    70    1
    57    71    74    1
    58    72    74    1
    59    73    74    1
    60    74    75    1
    61    76    79    1
    62    77    79    1
    63    78    79    1
    64    79    80    1
    65    81    84    1
    66    82    84    1
    67    83    84    1
    68    84    85    1
    69    86    89    1
    70    87    89    1
    71    88    89    1
    72    89    90    1
    73    91    94    1
    74    92    94    1
    75    93    94    1
    76    94    95    1
    77    96    99    1
    78    97    99    1
    79    98    99    1
    80    99   100    1
    81   101   104    1
    82   102   104    1
    83   103   104    1
    84   104   105    1
    85   106   109    1
    86   107   109    1
    87   108   109    1
    88   109   110    1
    89   111   114    1
    90   112   114    1
    91   113   114    1
    92   114   115    1
    93   116   119    1
    94   117   119    1
    95   118   119    1
    96   119   120    1
    97   121   124    1
    98   122   124    1
    99   123   124    1
   100   124   125    1
   101   126   129    1
   102   127   129    1
   103   128   129    1
   104   129   130    1
   105   131   134    1
   106   132   134    1
   107   133   134    1
   108   134   135    1
   109   136   139    1
   110   137   139    1
   111   138   139    1
   112   139   140    1
   113   141   144    1
   114   142   144    1
   115   143   144    1
   116   144   145    1
   117   146   149    1
   118   147   149    1
   119   148   149    1
   120   149   150    1
   121   151   154    1
   122   152   154    1
   123   153   154    1
   124   154   155    1
   125   156   159    1
   126   157   159    1
   127   158   159    1
   128   159   160    1
   129   161   164    1
   130   162   164    1
   131   163   164    1
   132   164   165    1
   133   166   169    1
   134   167   169    1
   135   168   169    1
   136   169   170    1
   137   171   174    1
   138   172   174    1
   139   173   174    1
   140   174   175    1
   141   176   179    1
   142   177   179    1
   143   178   179    1
   144   179   180    1
   145   181   184    1
   146   182   184    1
   147   183   184    1
   148   184   185    1
   149   186   189    1
   150   187   189    1
   151   188   189    1
   152   189   190    1
   153   191   194    1
   154   192   194    1
   155   193   194    1
   156   194   195    1
   157   196   199    1
   158   197   199    1
   159   198   199    1
   160   199   200    1
   161   201   204    1
   162   202   204    1
   163   203   204    1
   164   204   205    1
   165   206   209    1
   166   207   209    1
   167   208   209    1
   168   209   210    1
   169   211   214    1
   170   212   214    1
   171   213   214    1
   172   214   215    1
   173   216   219    1
   174   217   219    1
   175   218   219    1
   176   219   220    1
   177   221   224    1
   178   222   224    1
   179   223   224    1
   180   224   225    1
   181   226   229    1
   182   227   229    1
   183   228   229    1
   184   229   230    1
   185   231   234    1
   186   232   234    1
   187   233   234    1
   188   234   235    1
   189   236   239    1
   190   237   239    1
   191   238   239    1
   192   239   240    1
   193   241   244    1
   194   242   244    1
   195   243   244    1
   196   244   245    1
   197   246   249    1
   198   247   249    1
   199   248   249    1
   200   249   250    1
   201   251   254    1
   202   252   254    1
   203   253   254    1
   204   254   255    1
   205   256   259    1
   206   257   259    1
   207   258   259    1
   208   259   260    1
   209   261   264    1
   210   262   264    1
   211   263   264    1
   212   264   265    1
   213   266   269    1
   214   267   269    1
   215   268   269    1
   216   269   270    1
   217   271   274    1
   218   272   274    1
   219   273   274    1
   220   274   275    1
   221   276   279    1
   222   277   279    1
   223   278   279    1
   224   279   280    1
   225   281   284    1
   226   282   284    1
   227   283   284    1
   228   284   285    1
   229   286   289    1
   230   287   289    1
   231   288   289    1
   232   289   290    1
   233   291   294    1
   234   292   294    1
   235   293   294    1
   236   294   295    1
   237   296   299    1
   238   297   299    1
   239   298   299    1
   240   299   300    1
   241   301   304    1
   242   302   304    1
   243   303   304    1
   244   304   305    1
   245   306   309    1
   246   307   309    1
   247   308   309    1
   248   309   310    1
   249   311   314    1
   250   312   314    1
   251   313   314    1
   252   314   315    1
   253   316   319    1
   254   317   319    1
   255   318   319    1
   256   319   320    1
   257   321   324    1
   258   322   324    1
   259   323   324    1
   260   324   325    1
   261   326   329    1
   262   327   329    1
   263   328   329    1
   264   329   330    1
   265   331   334    1
   266   332   334    1
   267   333   334    1
   268   334   335    1
   269   336   339    1
   270   337   339    1
   271   338   339    1
   272   339   340    1
   273   341   344    1
   274   342   344    1
   275   343   344    1
   276   344   345    1
   277   346   349    1
   278   347   349    1
   279   348   349    1
   280   349   350    1
   281   351   354    1
   282   352   354    1
   283   353   354    1
   284   354   355    1
   285   356   359    1
   286   357   359    1
   287   358   359    1
   288   359   360    1
   289   361   364    1
   290   362   364    1
   291   363   364    1
   292   364   365    1
   293   366   369    1
   294   367   369    1
   295   368   369    1
   296   369   370    1
   297   371   374    1
   298   372   374    1
   299   373   374    1
   300   374   375    1
   301   376   379    1
   302   377   379    1
   303   378   379    1
   304   379   380    1
   305   381   384    1
   306   382   384    1
   307   383   384    1
   308   384   385    1
   309   386   389    1
   310   387   389    1
   311   388   389    1
   312   389   390    1
   313   391   394    1
   314   392   394    1
   315   393   394    1
   316   394   395    1
   317   396   399    1
   318   397   399    1
   319   398   399    1
   320   399   400    1
   321   401   404    1
   322   402   404    1
   323   403   404    1
   324   404   405    1
   325   406   409    1
   326   407   409    1
   327   408   409    1
   328   409   410    1
   329   411   414    1
   330   412   414    1
   331   413   414    1
   332   414   415    1
   333   416   419    1
   334   417   419    1
   335   418   419    1
   336   419   420    1
   337   421   424    1
   338   422   424    1
   339   423   424    1
   340   424   425    1
   341   426   429    1
   342   427   429    1
   343   428   429    1
   344   429   430    1
   345   431   434    1
   346   432   434    1
   347   433   434    1
   348   434   435    1
   349   436   439    1
   350   437   439    1
   351   438   439    1
   352   439   440    1
   353   441   444    1
   354   442   444    1
   355   443   444    1
   356   444   445    1
   357   446   449    1
   358   447   449    1
   359   448   449    1
   360   449   450    1
   361   451   454    1
   362   452   454    1
   363   453   454    1
   364   454   455    1
   365   456   459    1
   366   457   459    1
   367   458   459    1
   368   459   460    1
   369   461   464    1
   370   462   464    1
   371   463   464    1
   372   464   465    1
   373   466   469    1
   374   467   469    1
   375   468   469    1
   376   469   470    1
   377   471   474    1
   378   472   474    1
   379   473   474    1
   380   474   475    1
   381   476   479    1
   382   477   479    1
   383   478   479    1
   384   479   480    1
   385   481   484    1
   386   482   484    1
   387   483   484    1
   388   484   485    1
   389   486   489    1
   390   487   489    1
   391   488   489    1
   392   489   490    1
   393   491   494    1
   394   492   494    1
   395   493   494    1
   396   494   495    1
   397   496   499    1
   398   497   499    1
   399   498   499    1
   400   499   500    1
   401   501   504    1
   402   502   504    1
   403   503   504    1
   404   504   505    1
   405   506   509    1
   406   507   509    1
   407   508   509    1
   408   509   510    1
   409   511   514    1
   410   512   514    1
   411   513   514    1
   412   514   515    1
   413   516   519    1
   414   517   519    1
   415   518   519    1
   416   519   520    1
   417   521   524    1
   418   522   524    1
   419   523   524    1
   420   524   525    1
   421   526   529    1
   422   527   529    1
   423   528   529    1
   424   529   530    1
   425   531   534    1
   426   532   534    1
   427   533   534    1
   428   534   535    1
   429   536   539    1
   430   537   539    1
   431   538   539    1
   432   539   540    1
   433   541   544    1
   434   542   544    1
   435   543   544    1
   436   544   545    1
   437   546   549    1
   438   547   549    1
   439   548   549    1
   440   549   550    1
   441   551   554    1
   442   552   554    1
   443   553   554    1
   444   554   555    1
   445   556   559    1
   446   557   559    1
   447   558   559    1
   448   559   560    1
   449   561   564    1
   450   562   564    1
   451   563   564    1
   452   564   565    1
   453   566   569    1
   454   567   569    1
   455   568   569    1
   456   569   570    1
   457   571   574    1
   458   572   574    1
   459   573   574    1
   460   574   575    1
   461   576   579    1
   462   577   579    1
   463   578   579    1
   464   579   580    1
   465   581   584    1
   466   582   584    1
   467   583   584    1
   468   584   585    1
   469   586   589    1
   470   587   589    1
   471   588   589    1
   472   589   590    1
   473   591   594    1
   474   592   594    1
   475   593   594    1
   476   594   595    1
   477   596   599    1
   478   597   599    1
   479   598   599    1
   480   599   600    1
   481   601   604    1
   482   602   604    1
   483   603   604    1
   484   604   605    1
   485   606   609    1
   486   607   609    1
   487   608   609    1
   488   609   610    1
   489   611   614    1
   490   612   614    1
   491   613   614    1
   492   614   615    1
   493   616   619    1
   494   617   619    1
   495   618   619    1
   496   619   620    1
   497   621   624    1
   498   622   624    1
   499   623   624    1
   500   624   625    1
   501   626   629    1
   502   627   629    1
   503   628   629    1
   504   629   630    1
   505   631   634    1
   506   632   634    1
   507   633   634    1
   508   634   635    1
   509   636   639    1
   510   637   639    1
   511   638   639    1
   512   639   640    1
   513   641   644    1
   514   642   644    1
   515   643   644    1
   516   644   645    1
   517   646   649    1
   518   647   649    1
   519   648   649    1
   520   649   650    1
   521   651   654    1
   522   652   654    1
   523   653   654    1
   524   654   655    1
   525   656   659    1
   526   657   659    1
   527   658   659    1
   528   659   660    1
   529   661   664    1
   530   662   664    1
   531   663   664    1
   532   664   665    1
   533   666   669    1
   534   667   669    1
   535   668   669    1
   536   669   670    1
   537   671   674    1
   538   672   674    1
   539   673   674    1
   540   674   675    1
   541   676   679    1
   542   677   679    1
   543   678   679    1
   544   679   680    1
   545   681   684    1
   546   682   684    1
   547   683   684    1
   548   684   685    1
   549   686   689    1
   550   687   689    1
   551   688   689    1
   552   689   690    1
   553   691   694    1
   554   692   694    1
   555   693   694    1
   556   694   695    1
   557   696   699    1
   558   697   699    1
   559   698   699    1
   560   699   700    1
   561   701   704    1
   562   702   704    1
   563   703   704    1
   564   704   705    1
   565   706   709    1
   566   707   709    1
   567   708   709    1
   568   709   710    1
   569   711   714    1
   570   712   714    1
   571   713   714    1
   572   714   715    1
   573   716   719    1
   574   717   719    1
   575   718   719    1
   576   719   720    1
   577   721   724    1
   578   722   724    1
   579   723   724    1
   580   724   725    1
   581   726   729    1
   582   727   729    1
   583   728   729    1
   584   729   730    1
   585   731   734    1
   586   732   734    1
   587   733   734    1
   588   734   735    1
   589   736   739    1
   590   737   739    1
   591   738   739    1
   592   739   740    1
   593   741   744    1
   594   742   744    1
   595   743   744    1
   596   744   745    1
   597   746   749    1
   598   747   749    1
   599   748   749    1
   600   749   750    1
   601   751   754    1
   602   752   754    1
   603   753   754    1
   604   754   755    1
   605   756   759    1
   606   757   759    1
   607   758   759    1
   608   759   760    1
   609   761   764    1
   610   762   764    1
   611   763   764    1
   612   764   765    1
   613   766   769    1
   614   767   769    1
   615   768   769    1
   616   769   770    1
   617   771   774    1
   618   772   774    1
   619   773   774    1
   620   774   775    1
   621   776   779    1
   622   777   779    1
   623   778   779    1
   624   779   780    1
   625   781   784    1
   626   782   784    1
   627   783   784    1
   628   784   785    1
   629   786   789    1
   630   787   789    1
   631   788   789    1
   632   789   790    1
   633   791   794    1
   634   792   794    1
   635   793   794    1
   636   794   795    1
   637   796   799    1
   638   797   799    1
   639   798   799    1
   640   799   800    1
   641   801   804    1
   642   802   804    1
   643   803   804    1
   644   804   805    1
   645   806   809    1
   646   807   809    1
   647   808   809    1
   648   809   810    1
   649   811   814    1
   650   812   814    1
   651   813   814    1
   652   814   815    1
   653   816   819    1
   654   817   819    1
   655   818   819    1
   656   819   820    1
   657   821   824    1
   658   822   824    1
   659   823   824    1
   660   824   825    1
   661   826   829    1
   662   827   829    1
   663   828   829    1
   664   829   830    1
   665   831   834    1
   666   832   834    1
   667   833   834    1
   668   834   835    1
   669   836   839    1
   670   837   839    1
   671   838   839    1
   672   839   840    1
   673   841   844    1
   674   842   844    1
   675   843   844    1
   676   844   845    1
   677   846   849    1
   678   847   849    1
   679   848   849    1
   680   849   850    1
   681   851   854    1
   682   852   854    1
   683   853   854    1
   684   854   855    1
   685   856   859    1
   686   857   859    1
   687   858   859    1
   688   859   860    1
