@<TRIPOS>MOLECULE
*****
 60 48 0 0 0
SMALL
GASTEIGER

@<TRIPOS>ATOM
      1 CL          1.3710   -3.2121    0.1043 Cl      1  UNL1       -0.0870
      2 CL          0.0613   -0.6104    0.1043 Cl      1  UNL1       -0.0870
      3 CL          2.9694   -0.7771    0.1042 Cl      1  UNL1       -0.0870
      4 C           1.4671   -1.5332   -0.4532 C.3     1  UNL1        0.1805
      5 H           1.4671   -1.5333   -1.5462 H       1  UNL1        0.0806
      6 CL          1.3710   -3.2121    2.3545 Cl      2  UNL2       -0.0870
      7 CL          0.0613   -0.6104    2.3545 Cl      2  UNL2       -0.0870
      8 CL          2.9694   -0.7771    2.3544 Cl      2  UNL2       -0.0870
      9 C           1.4671   -1.5332    1.7970 C.3     2  UNL2        0.1805
     10 H           1.4671   -1.5333    0.7040 H       2  UNL2        0.0806
     11 CL          1.3710   -3.2121    4.6048 Cl      3  UNL3       -0.0870
     12 CL          0.0613   -0.6104    4.6048 Cl      3  UNL3       -0.0870
     13 CL          2.9694   -0.7771    4.6047 Cl      3  UNL3       -0.0870
     14 C           1.4671   -1.5332    4.0473 C.3     3  UNL3        0.1805
     15 H           1.4671   -1.5333    2.9543 H       3  UNL3        0.0806
     16 CL          1.3710   -3.2121    6.8550 Cl      4  UNL4       -0.0870
     17 CL          0.0613   -0.6104    6.8550 Cl      4  UNL4       -0.0870
     18 CL          2.9694   -0.7771    6.8549 Cl      4  UNL4       -0.0870
     19 C           1.4671   -1.5332    6.2975 C.3     4  UNL4        0.1805
     20 H           1.4671   -1.5333    5.2045 H       4  UNL4        0.0806
     21 CL          1.3710   -3.2121    9.1053 Cl      5  UNL5       -0.0870
     22 CL          0.0613   -0.6104    9.1053 Cl      5  UNL5       -0.0870
     23 CL          2.9694   -0.7771    9.1052 Cl      5  UNL5       -0.0870
     24 C           1.4671   -1.5332    8.5478 C.3     5  UNL5        0.1805
     25 H           1.4671   -1.5333    7.4548 H       5  UNL5        0.0806
     26 CL          1.3710   -3.2121   11.3555 Cl      6  UNL6       -0.0870
     27 CL          0.0613   -0.6104   11.3555 Cl      6  UNL6       -0.0870
     28 CL          2.9694   -0.7771   11.3554 Cl      6  UNL6       -0.0870
     29 C           1.4671   -1.5332   10.7980 C.3     6  UNL6        0.1805
     30 H           1.4671   -1.5333    9.7050 H       6  UNL6        0.0806
     31 CL          1.3710   -0.1612    0.1043 Cl      7  UNL7       -0.0870
     32 CL          0.0613    2.4405    0.1043 Cl      7  UNL7       -0.0870
     33 CL          2.9694    2.2738    0.1042 Cl      7  UNL7       -0.0870
     34 C           1.4671    1.5177   -0.4532 C.3     7  UNL7        0.1805
     35 H           1.4671    1.5176   -1.5462 H       7  UNL7        0.0806
     36 CL          1.3710   -0.1612    2.3545 Cl      8  UNL8       -0.0870
     37 CL          0.0613    2.4405    2.3545 Cl      8  UNL8       -0.0870
     38 CL          2.9694    2.2738    2.3544 Cl      8  UNL8       -0.0870
     39 C           1.4671    1.5177    1.7970 C.3     8  UNL8        0.1805
     40 H           1.4671    1.5176    0.7040 H       8  UNL8        0.0806
     41 CL          1.3710   -0.1612    4.6048 Cl      9  UNL9       -0.0870
     42 CL          0.0613    2.4405    4.6048 Cl      9  UNL9       -0.0870
     43 CL          2.9694    2.2738    4.6047 Cl      9  UNL9       -0.0870
     44 C           1.4671    1.5177    4.0473 C.3     9  UNL9        0.1805
     45 H           1.4671    1.5176    2.9543 H       9  UNL9        0.0806
     46 CL          1.3710   -0.1612    6.8550 Cl     10  UNL10      -0.0870
     47 CL          0.0613    2.4405    6.8550 Cl     10  UNL10      -0.0870
     48 CL          2.9694    2.2738    6.8549 Cl     10  UNL10      -0.0870
     49 C           1.4671    1.5177    6.2975 C.3    10  UNL10       0.1805
     50 H           1.4671    1.5176    5.2045 H      10  UNL10       0.0806
     51 CL          1.3710   -0.1612    9.1053 Cl     11  UNL11      -0.0870
     52 CL          0.0613    2.4405    9.1053 Cl     11  UNL11      -0.0870
     53 CL          2.9694    2.2738    9.1052 Cl     11  UNL11      -0.0870
     54 C           1.4671    1.5177    8.5478 C.3    11  UNL11       0.1805
     55 H           1.4671    1.5176    7.4548 H      11  UNL11       0.0806
     56 CL          1.3710   -0.1612   11.3555 Cl     12  UNL12      -0.0870
     57 CL          0.0613    2.4405   11.3555 Cl     12  UNL12      -0.0870
     58 CL          2.9694    2.2738   11.3554 Cl     12  UNL12      -0.0870
     59 C           1.4671    1.5177   10.7980 C.3    12  UNL12       0.1805
     60 H           1.4671    1.5176    9.7050 H      12  UNL12       0.0806
@<TRIPOS>BOND
     1     1     4    1
     2     2     4    1
     3     3     4    1
     4     4     5    1
     5     6     9    1
     6     7     9    1
     7     8     9    1
     8     9    10    1
     9    11    14    1
    10    12    14    1
    11    13    14    1
    12    14    15    1
    13    16    19    1
    14    17    19    1
    15    18    19    1
    16    19    20    1
    17    21    24    1
    18    22    24    1
    19    23    24    1
    20    24    25    1
    21    26    29    1
    22    27    29    1
    23    28    29    1
    24    29    30    1
    25    31    34    1
    26    32    34    1
    27    33    34    1
    28    34    35    1
    29    36    39    1
    30    37    39    1
    31    38    39    1
    32    39    40    1
    33    41    44    1
    34    42    44    1
    35    43    44    1
    36    44    45    1
    37    46    49    1
    38    47    49    1
    39    48    49    1
    40    49    50    1
    41    51    54    1
    42    52    54    1
    43    53    54    1
    44    54    55    1
    45    56    59    1
    46    57    59    1
    47    58    59    1
    48    59    60    1
