@<TRIPOS>MOLECULE
*****
 45 36 0 0 0
SMALL
GASTEIGER

@<TRIPOS>ATOM
      1 CL         -3.0157   -0.2884   18.1111 Cl      1  UNL1       -0.0870
      2 CL         -1.4969   -2.6250   17.2638 Cl      1  UNL1       -0.0870
      3 CL         -0.4891    0.0496   16.7017 Cl      1  UNL1       -0.0870
      4 C          -1.3957   -0.9547   17.8457 C.3     1  UNL1        0.1805
      5 H          -0.8633   -0.9547   18.8003 H       1  UNL1        0.0806
      6 CL          9.0224   -0.1566   19.7163 Cl      2  UNL2       -0.0870
      7 CL          7.7218   -1.5258   17.4986 Cl      2  UNL2       -0.0870
      8 CL          6.1150   -0.2494   19.5659 Cl      2  UNL2       -0.0870
      9 C           7.6198   -0.1696   18.6340 C.3     2  UNL2        0.1805
     10 H           7.6199    0.7605   18.0599 H       2  UNL2        0.0806
     11 CL         16.6679   -2.3835    3.4422 Cl      3  UNL3       -0.0870
     12 CL         17.9631    0.2182    3.2474 Cl      3  UNL3       -0.0870
     13 CL         15.0873    0.0515    3.6802 Cl      3  UNL3       -0.0870
     14 C          16.6559   -0.7046    4.0078 C.3     3  UNL3        0.1805
     15 H          16.8185   -0.7047    5.0887 H       3  UNL3        0.0806
     16 CL         12.4173   -2.3835    7.6603 Cl      4  UNL4       -0.0870
     17 CL         11.1077    0.2182    7.6603 Cl      4  UNL4       -0.0870
     18 CL         14.0157    0.0515    7.6602 Cl      4  UNL4       -0.0870
     19 C          12.5135   -0.7046    7.1028 C.3     4  UNL4        0.1805
     20 H          12.5135   -0.7047    6.0098 H       4  UNL4        0.0806
     21 CL         21.0026   -0.2414   20.6366 Cl      5  UNL5       -0.0870
     22 CL         23.9154   -0.2363   20.6366 Cl      5  UNL5       -0.0870
     23 CL         22.4633   -2.7614   20.6365 Cl      5  UNL5       -0.0870
     24 C          22.4605   -1.0796   20.0791 C.3     5  UNL5        0.1805
     25 H          22.4604   -1.0795   18.9861 H       5  UNL5        0.0806
     26 CL         23.9726   -0.0989   10.2015 Cl      6  UNL6       -0.0870
     27 CL         21.8493   -0.6008    8.2717 Cl      6  UNL6       -0.0870
     28 CL         21.1842    0.1131   11.0163 Cl      6  UNL6       -0.0870
     29 C          22.3354    0.3439    9.6894 C.3     6  UNL6        0.1805
     30 H          22.3355    1.4018    9.4144 H       6  UNL6        0.0806
     31 CL         20.9229    0.4243   17.1470 Cl      7  UNL7       -0.0870
     32 CL         23.7911    0.1576   16.7150 Cl      7  UNL7       -0.0870
     33 CL         21.9172   -1.0138   14.8174 Cl      7  UNL7       -0.0870
     34 C          22.2105    0.3304   15.9337 C.3     7  UNL7        0.1805
     35 H          22.2104    1.2605   15.3596 H       7  UNL7        0.0806
     36 CL         24.9958   -2.2241    7.2797 Cl      8  UNL8       -0.0870
     37 CL         27.6392   -1.1225    6.7478 Cl      8  UNL8       -0.0870
     38 CL         25.3024    0.6161    6.7108 Cl      8  UNL8       -0.0870
     39 C          26.0463   -0.8085    7.4568 C.3     8  UNL8        0.1805
     40 H          26.1777   -0.6091    8.5234 H       8  UNL8        0.0806
     41 CL         30.9720   -0.2181   26.4660 Cl      9  UNL9       -0.0870
     42 CL         28.9077   -0.2028   24.4111 Cl      9  UNL9       -0.0870
     43 CL         31.6102    0.6729   23.7674 Cl      9  UNL9       -0.0870
     44 C          30.6323   -0.4382   24.7412 C.3     9  UNL9        0.1805
     45 H          30.8986   -1.4620   24.4662 H       9  UNL9        0.0806
@<TRIPOS>BOND
     1     1     4    1
     2     2     4    1
     3     3     4    1
     4     4     5    1
     5     6     9    1
     6     7     9    1
     7     8     9    1
     8     9    10    1
     9    11    14    1
    10    12    14    1
    11    13    14    1
    12    14    15    1
    13    16    19    1
    14    17    19    1
    15    18    19    1
    16    19    20    1
    17    21    24    1
    18    22    24    1
    19    23    24    1
    20    24    25    1
    21    26    29    1
    22    27    29    1
    23    28    29    1
    24    29    30    1
    25    31    34    1
    26    32    34    1
    27    33    34    1
    28    34    35    1
    29    36    39    1
    30    37    39    1
    31    38    39    1
    32    39    40    1
    33    41    44    1
    34    42    44    1
    35    43    44    1
    36    44    45    1
