@<TRIPOS>MOLECULE
*****
 315 252 0 0 0
SMALL
GASTEIGER

@<TRIPOS>ATOM
      1 CL         -3.1328   -0.3390   -0.9606 Cl      1  UNL1       -0.0870
      2 CL         -0.6184   -1.8094   -0.9606 Cl      1  UNL1       -0.0870
      3 CL         -3.1491   -3.2517   -0.9607 Cl      1  UNL1       -0.0870
      4 C          -2.2999   -1.8000   -1.5181 C.3     1  UNL1        0.1805
      5 H          -2.3000   -1.7999   -2.6111 H       1  UNL1        0.0806
      6 CL         -1.3991   -2.4696    2.9148 Cl      2  UNL2       -0.0870
      7 CL         -3.1464   -0.1391    2.9148 Cl      2  UNL2       -0.0870
      8 CL         -0.2544    0.2088    2.9147 Cl      2  UNL2       -0.0870
      9 C          -1.6001   -0.8000    2.3573 C.3     2  UNL2        0.1805
     10 H          -1.6001   -0.8001    1.2643 H       2  UNL2        0.0806
     11 CL         -0.2560   -0.5337    6.2902 Cl      3  UNL3       -0.0870
     12 CL         -1.9951   -2.8704    6.2902 Cl      3  UNL3       -0.0870
     13 CL         -3.1491   -0.1958    6.2901 Cl      3  UNL3       -0.0870
     14 C          -1.8000   -1.2001    5.7327 C.3     3  UNL3        0.1805
     15 H          -1.7999   -1.2001    4.6397 H       3  UNL3        0.0806
     16 CL         -2.3625    0.3847    9.6655 Cl      4  UNL4       -0.0870
     17 CL         -0.1463   -1.5053    9.6655 Cl      4  UNL4       -0.0870
     18 CL         -2.8914   -2.4796    9.6654 Cl      4  UNL4       -0.0870
     19 C          -1.7999   -1.2000    9.1080 C.3     4  UNL4        0.1805
     20 H          -1.8000   -1.1999    8.0150 H       4  UNL4        0.0806
     21 CL         -0.1208   -1.0102   13.3409 Cl      5  UNL5       -0.0870
     22 CL         -2.5619   -2.5992   13.3409 Cl      5  UNL5       -0.0870
     23 CL         -2.7174    0.3095   13.3408 Cl      5  UNL5       -0.0870
     24 C          -1.8000   -1.1001   12.7834 C.3     5  UNL5        0.1805
     25 H          -1.7999   -1.1001   11.6904 H       5  UNL5        0.0806
     26 CL         -2.4721   -2.7415   17.1163 Cl      6  UNL6       -0.0870
     27 CL         -2.7989    0.1529   17.1163 Cl      6  UNL6       -0.0870
     28 CL         -0.1289   -1.0114   17.1162 Cl      6  UNL6       -0.0870
     29 C          -1.8001   -1.2000   16.5588 C.3     6  UNL6        0.1805
     30 H          -1.8001   -1.2001   15.4658 H       6  UNL6        0.0806
     31 CL         -2.5014   -2.5633   20.5870 Cl      7  UNL7       -0.0870
     32 CL         -0.8737   -0.1886   20.1443 Cl      7  UNL7       -0.0870
     33 CL          0.1777   -2.4023   21.7187 Cl      7  UNL7       -0.0870
     34 C          -0.8565   -1.9477   20.3538 C.3     7  UNL7        0.1805
     35 H          -0.4462   -2.3982   19.4464 H       7  UNL7        0.0806
     36 CL         -1.5621   -1.6789   24.3135 Cl      8  UNL8       -0.0870
     37 CL         -0.9753    0.9228   25.4844 Cl      8  UNL8       -0.0870
     38 CL         -2.2784    0.7561   22.8846 Cl      8  UNL8       -0.0870
     39 C          -2.1036    0.0000   24.4774 C.3     8  UNL8        0.1805
     40 H          -3.0807   -0.0001   24.9671 H       8  UNL8        0.0806
     41 CL         -2.0824    4.9100   -1.8497 Cl      9  UNL9       -0.0870
     42 CL         -0.4534    3.1212   -0.2278 Cl      9  UNL9       -0.0870
     43 CL         -1.8231    2.1046   -2.5889 Cl      9  UNL9       -0.0870
     44 C          -1.0074    3.5019   -1.8669 C.3     9  UNL9        0.1805
     45 H          -0.1338    3.7436   -2.4778 H       9  UNL9        0.0806
     46 CL         -2.3517    4.5974    1.8893 Cl     10  UNL10      -0.0870
     47 CL         -1.7649    7.1991    0.7184 Cl     10  UNL10      -0.0870
     48 CL         -3.0678    7.0324    3.3183 Cl     10  UNL10      -0.0870
     49 C          -1.8964    6.2763    2.2250 C.3    10  UNL10       0.1805
     50 H          -0.9192    6.2762    2.7148 H      10  UNL10       0.0806
     51 CL         -3.1014    4.2241    5.4504 Cl     11  UNL11      -0.0870
     52 CL         -1.4737    2.2429    6.8324 Cl     11  UNL11      -0.0870
     53 CL         -0.4223    3.6111    4.4856 Cl     11  UNL11      -0.0870
     54 C          -1.4565    3.7594    5.9166 C.3    11  UNL11       0.1805
     55 H          -1.0462    4.5438    6.5576 H      11  UNL11       0.0806
     56 CL         -1.7962    4.5974    9.1655 Cl     12  UNL12      -0.0870
     57 CL         -3.1059    7.1991    9.1655 Cl     12  UNL12      -0.0870
     58 CL         -0.1978    7.0324    9.1654 Cl     12  UNL12      -0.0870
     59 C          -1.7001    6.2763    8.6080 C.3    12  UNL12       0.1805
     60 H          -1.7001    6.2762    7.5150 H      12  UNL12       0.0806
     61 CL         -0.2826    7.2364   13.0409 Cl     13  UNL13      -0.0870
     62 CL         -1.1041    4.4418   13.0409 Cl     13  UNL13      -0.0870
     63 CL         -3.1135    6.5506   13.0408 Cl     13  UNL13      -0.0870
     64 C          -1.5000    6.0762   12.4834 C.3    13  UNL13       0.1805
     65 H          -1.4999    6.0763   11.3904 H      13  UNL13       0.0806
     66 CL         -0.2560    6.8425   16.9163 Cl     14  UNL14      -0.0870
     67 CL         -1.9951    4.5059   16.9163 Cl     14  UNL14      -0.0870
     68 CL         -3.1491    7.1804   16.9162 Cl     14  UNL14      -0.0870
     69 C          -1.8000    6.1762   16.3588 C.3    14  UNL14       0.1805
     70 H          -1.7999    6.1762   15.2658 H      14  UNL14       0.0806
     71 CL         -1.2991    4.4067   20.7917 Cl     15  UNL15      -0.0870
     72 CL         -3.0464    6.7372   20.7917 Cl     15  UNL15      -0.0870
     73 CL         -0.1544    7.0850   20.7916 Cl     15  UNL15      -0.0870
     74 C          -1.5001    6.0763   20.2342 C.3    15  UNL15       0.1805
     75 H          -1.5001    6.0762   19.1412 H      15  UNL15       0.0806
     76 CL         -2.0421    6.0864   23.9656 Cl     16  UNL16      -0.0870
     77 CL         -0.2517    4.3588   25.4803 Cl     16  UNL16      -0.0870
     78 CL         -3.0716    3.6728   25.2301 Cl     16  UNL16      -0.0870
     79 C          -1.6767    4.4160   24.4292 C.3    16  UNL16       0.1805
     80 H          -1.4580    3.8473   23.5218 H      16  UNL16       0.0806
     81 CL          1.7435    1.4847    1.6148 Cl     17  UNL17      -0.0870
     82 CL          3.9598   -0.4053    1.6148 Cl     17  UNL17      -0.0870
     83 CL          1.2147   -1.3796    1.6147 Cl     17  UNL17      -0.0870
     84 C           2.3061   -0.1000    1.0573 C.3    17  UNL17       0.1805
     85 H           2.3061   -0.0999   -0.0357 H      17  UNL17       0.0806
     86 CL          2.7733    3.9610    4.6902 Cl     18  UNL18      -0.0870
     87 CL          5.2877    2.4906    4.6902 Cl     18  UNL18      -0.0870
     88 CL          2.7570    1.0483    4.6901 Cl     18  UNL18      -0.0870
     89 C           3.6061    2.5000    4.1327 C.3    18  UNL18       0.1805
     90 H           3.6061    2.5001    3.0396 H      18  UNL18       0.0806
     91 CL          4.5158   -1.2357    7.8655 Cl     19  UNL19      -0.0870
     92 CL          3.6846    1.5559    7.8655 Cl     19  UNL19      -0.0870
     93 CL          6.5179    0.8798    7.8654 Cl     19  UNL19      -0.0870
     94 C           4.9060    0.4000    7.3080 C.3    19  UNL19       0.1805
     95 H           4.9060    0.3999    6.2150 H      19  UNL19       0.0806
     96 CL          4.9432    0.3840   11.4409 Cl     20  UNL20      -0.0870
     97 CL          2.8200   -1.6099   11.4409 Cl     20  UNL20      -0.0870
     98 CL          2.1548    1.2260   11.4408 Cl     20  UNL20      -0.0870
     99 C           3.3061   -0.0001   10.8834 C.3    20  UNL20       0.1805
    100 H           3.3062   -0.0001    9.7904 H      20  UNL20       0.0806
    101 CL          5.1087    0.9277   15.3163 Cl     21  UNL21      -0.0870
    102 CL          3.8081   -1.6786   15.3163 Cl     21  UNL21      -0.0870
    103 CL          2.2013    0.7510   15.3162 Cl     21  UNL21      -0.0870
    104 C           3.7061   -0.0001   14.7588 C.3    21  UNL21       0.1805
    105 H           3.7062   -0.0000   13.6658 H      21  UNL21       0.0806
    106 CL          5.0234    0.9601   19.3917 Cl     22  UNL22      -0.0870
    107 CL          4.2020   -1.8344   19.3917 Cl     22  UNL22      -0.0870
    108 CL          2.1926    0.2743   19.3916 Cl     22  UNL22      -0.0870
    109 C           3.8061   -0.2001   18.8342 C.3    22  UNL22       0.1805
    110 H           3.8062   -0.2000   17.7412 H      22  UNL22       0.0806
    111 CL          4.0572   -2.5373   22.8980 Cl     23  UNL23      -0.0870
    112 CL          1.8793   -3.4120   24.6230 Cl     23  UNL23      -0.0870
    113 CL          3.5971   -1.2094   25.4493 Cl     23  UNL23      -0.0870
    114 C           2.8347   -2.0250   24.0734 C.3    23  UNL23       0.1805
    115 H           2.1621   -1.3164   23.5833 H      23  UNL23       0.0806
    116 CL          3.7395    7.1943   -1.8497 Cl     24  UNL24      -0.0870
    117 CL          1.7818    5.7728   -0.2278 Cl     24  UNL24      -0.0870
    118 CL          0.9226    7.2464   -2.5889 Cl     24  UNL24      -0.0870
    119 C           2.2213    6.2813   -1.8669 C.3    24  UNL24       0.1805
    120 H           2.3651    5.3865   -2.4778 H      24  UNL24       0.0806
    121 CL          6.2971    7.1581    1.3402 Cl     25  UNL25      -0.0870
    122 CL          3.6838    6.6503    2.5222 Cl     25  UNL25      -0.0870
    123 CL          5.3913    4.4202    1.7500 Cl     25  UNL25      -0.0870
    124 C           5.3538    6.0763    2.3788 C.3    25  UNL25       0.1805
    125 H           5.8043    6.0764    3.3746 H      25  UNL25       0.0806
    126 CL          5.8234    7.2364    6.7902 Cl     26  UNL26      -0.0870
    127 CL          5.0020    4.4418    6.7902 Cl     26  UNL26      -0.0870
    128 CL          2.9926    6.5506    6.7901 Cl     26  UNL26      -0.0870
    129 C           4.6061    6.0762    6.2327 C.3    26  UNL26       0.1805
    130 H           4.6062    6.0763    5.1396 H      26  UNL26       0.0806
    131 CL          2.0305    5.4272   11.4299 Cl     27  UNL27      -0.0870
    132 CL          4.0828    3.8702   10.0705 Cl     27  UNL27      -0.0870
    133 CL          1.3781    3.9700    8.9936 Cl     27  UNL27      -0.0870
    134 C           2.6347    4.8691    9.8607 C.3    27  UNL27       0.1805
    135 H           2.9043    5.7448    9.2648 H      27  UNL27       0.0806
    136 CL          7.5087    3.4490   13.0792 Cl     28  UNL28      -0.0870
    137 CL          6.2081    5.8237   12.0051 Cl     28  UNL28      -0.0870
    138 CL          4.6013    3.6100   13.0065 Cl     28  UNL28      -0.0870
    139 C           6.1061    4.5241   13.2048 C.3    28  UNL28       0.1805
    140 H           6.1062    4.9745   14.2007 H      28  UNL28       0.0806
    141 CL          2.2099    4.8272   15.4653 Cl     28  UNL28      -0.0870
    142 CL          0.9002    3.2702   17.5497 Cl     28  UNL28      -0.0870
    143 CL          3.8083    3.3700   17.4162 Cl     28  UNL28      -0.0870
    144 C           2.3060    4.2691   17.1440 C.3    28  UNL28       0.1805
    145 H           2.3060    5.1448   17.7981 H      28  UNL28       0.0806
    146 CL          3.9482    7.2145   20.6917 Cl     28  UNL28      -0.0870
    147 CL          6.8610    7.2196   20.6917 Cl     28  UNL28      -0.0870
    148 CL          5.4089    4.6945   20.6916 Cl     28  UNL28      -0.0870
    149 C           5.4061    6.3763   20.1342 C.3    28  UNL28       0.1805
    150 H           5.4060    6.3764   19.0412 H      28  UNL28       0.0806
    151 CL          2.5474    3.5172   23.6050 Cl     28  UNL28      -0.0870
    152 CL          3.2614    6.0180   24.9166 Cl     28  UNL28      -0.0870
    153 CL          4.7941    3.6006   25.4569 Cl     28  UNL28      -0.0870
    154 C           3.8773    4.5020   24.2377 C.3    28  UNL28       0.1805
    155 H           4.5500    4.7435   23.4108 H      28  UNL28       0.0806
    156 CL          6.1160   -2.2426   -2.6010 Cl     28  UNL28      -0.0870
    157 CL          4.8063   -3.4083   -0.2751 Cl     28  UNL28      -0.0870
    158 CL          7.7143   -3.3335   -0.4241 Cl     28  UNL28      -0.0870
    159 C           6.2121   -2.4964   -0.8503 C.3    28  UNL28       0.1805
    160 H           6.2121   -1.5192   -0.3606 H      28  UNL28       0.0806
    161 CL         11.3561   -1.0337    2.2148 Cl     28  UNL28      -0.0870
    162 CL          9.6171   -3.3704    2.2148 Cl     28  UNL28      -0.0870
    163 CL          8.4631   -0.6958    2.2147 Cl     28  UNL28      -0.0870
    164 C           9.8122   -1.7001    1.6573 C.3    28  UNL28       0.1805
    165 H           9.8122   -1.7001    0.5643 H      28  UNL28       0.0806
    166 CL         10.8295   -0.2399    6.0902 Cl     28  UNL28      -0.0870
    167 CL         10.0081   -3.0344    6.0902 Cl     28  UNL28      -0.0870
    168 CL          7.9986   -0.9257    6.0901 Cl     28  UNL28      -0.0870
    169 C           9.6122   -1.4001    5.5327 C.3    28  UNL28       0.1805
    170 H           9.6122   -1.4000    4.4397 H      28  UNL28       0.0806
    171 CL          9.4152   -0.3302    9.9655 Cl     28  UNL28      -0.0870
    172 CL          9.8701   -3.2073    9.9655 Cl     28  UNL28      -0.0870
    173 CL          7.1510   -2.1626    9.9654 Cl     28  UNL28      -0.0870
    174 C           8.8122   -1.9001    9.4080 C.3    28  UNL28       0.1805
    175 H           8.8122   -1.9000    8.3150 H      28  UNL28       0.0806
    176 CL          8.4374   -0.1410   13.6409 Cl     28  UNL28      -0.0870
    177 CL         10.2863   -2.3917   13.6409 Cl     28  UNL28      -0.0870
    178 CL          7.4126   -2.8675   13.6408 Cl     28  UNL28      -0.0870
    179 C           8.7122   -1.8000   13.0834 C.3    28  UNL28       0.1805
    180 H           8.7122   -1.7999   11.9904 H      28  UNL28       0.0806
    181 CL          7.3794   -0.4390   17.4163 Cl     28  UNL28      -0.0870
    182 CL          9.8938   -1.9094   17.4163 Cl     28  UNL28      -0.0870
    183 CL          7.3631   -3.3517   17.4162 Cl     28  UNL28      -0.0870
    184 C           8.2122   -1.9000   16.8588 C.3    28  UNL28       0.1805
    185 H           8.2122   -1.8999   15.7658 H      28  UNL28       0.0806
    186 CL          6.9474   -3.3130   21.0917 Cl     28  UNL28      -0.0870
    187 CL          7.6441   -0.4848   21.0917 Cl     28  UNL28      -0.0870
    188 CL          9.7451   -2.5023   21.0916 Cl     28  UNL28      -0.0870
    189 C           8.1121   -2.1000   20.5342 C.3    28  UNL28       0.1805
    190 H           8.1120   -2.1000   19.4412 H      28  UNL28       0.0806
    191 CL         10.7032    2.4818   23.3924 Cl     28  UNL28      -0.0870
    192 CL          8.0899    1.9740   24.5745 Cl     28  UNL28      -0.0870
    193 CL          9.7974   -0.2560   23.8023 Cl     28  UNL28      -0.0870
    194 C           9.7598    1.4000   24.4310 C.3    28  UNL28       0.1805
    195 H          10.2104    1.4001   25.4268 H      28  UNL28       0.0806
    196 CL          8.0706    4.9556   -1.8497 Cl     28  UNL28      -0.0870
    197 CL          8.9398    7.2134   -0.2278 Cl     28  UNL28      -0.0870
    198 CL         10.4624    6.4444   -2.5889 Cl     28  UNL28      -0.0870
    199 C           8.8477    6.5476   -1.8669 C.3    28  UNL28       0.1805
    200 H           8.2402    7.2202   -2.4778 H      28  UNL28       0.0806
    201 CL         11.2746    5.0931    1.1148 Cl     28  UNL28      -0.0870
    202 CL         11.9811    2.2673    1.1148 Cl     28  UNL28      -0.0870
    203 CL          9.1806    3.0684    1.1147 Cl     28  UNL28      -0.0870
    204 C          10.8122    3.4762    0.5573 C.3    28  UNL28       0.1805
    205 H          10.8122    3.4763   -0.5357 H      28  UNL28       0.0806
    206 CL          9.4576    3.0130    6.0415 Cl     28  UNL28      -0.0870
    207 CL         10.1999    5.3877    4.5269 Cl     28  UNL28      -0.0870
    208 CL         12.0765    3.1740    4.7769 Cl     28  UNL28      -0.0870
    209 C          10.3686    3.6286    4.6523 C.3    28  UNL28       0.1805
    210 H           9.9581    3.1781    3.7450 H      28  UNL28       0.0806
    211 CL          9.7235    4.5974    8.8367 Cl     28  UNL28      -0.0870
    212 CL         10.5073    7.1991    9.8859 Cl     28  UNL28      -0.0870
    213 CL          8.7668    7.0324    7.5562 Cl     28  UNL28      -0.0870
    214 C           9.2193    6.2763    9.0933 C.3    28  UNL28       0.1805
    215 H           8.3437    6.2762    9.7474 H      28  UNL28       0.0806
    216 CL         10.5794    4.8372   12.2409 Cl     28  UNL28      -0.0870
    217 CL         13.0938    3.3669   12.2409 Cl     28  UNL28      -0.0870
    218 CL         10.5631    1.9245   12.2408 Cl     28  UNL28      -0.0870
    219 C          11.4122    3.3763   11.6834 C.3    28  UNL28       0.1805
    220 H          11.4122    3.3764   10.5904 H      28  UNL28       0.0806
    221 CL          8.9235    4.5974   16.1874 Cl     28  UNL28      -0.0870
    222 CL          9.7073    7.1991   17.2367 Cl     28  UNL28      -0.0870
    223 CL          7.9668    7.0324   14.9069 Cl     28  UNL28      -0.0870
    224 C           8.4193    6.2763   16.4441 C.3    28  UNL28       0.1805
    225 H           7.5437    6.2762   17.0982 H      28  UNL28       0.0806
    226 CL         10.8294    5.1277   19.8917 Cl     28  UNL28      -0.0870
    227 CL         11.7837    2.3757   19.8917 Cl     28  UNL28      -0.0870
    228 CL          8.9231    2.9254   19.8916 Cl     28  UNL28      -0.0870
    229 C          10.5122    3.4762   19.3342 C.3    28  UNL28       0.1805
    230 H          10.5122    3.4763   18.2412 H      28  UNL28       0.0806
    231 CL         10.6037    5.4836   25.2279 Cl     28  UNL28      -0.0870
    232 CL          7.7431    5.9636   25.4936 Cl     28  UNL28      -0.0870
    233 CL          9.2370    7.2240   23.3339 Cl     28  UNL28      -0.0870
    234 C           9.0904    5.7851   24.3573 C.3    28  UNL28       0.1805
    235 H           8.8865    4.9250   23.7143 H      28  UNL28       0.0806
    236 CL         13.6126   -2.8849   -1.4327 Cl     28  UNL28      -0.0870
    237 CL         14.5724   -0.2042   -2.0467 Cl     28  UNL28      -0.0870
    238 CL         11.7906   -0.9061   -2.5503 Cl     28  UNL28      -0.0870
    239 C          13.1902   -1.1654   -1.4952 C.3    28  UNL28       0.1805
    240 H          12.9252   -0.8396   -0.4861 H      28  UNL28       0.0806
    241 CL         14.3852   -2.8991    2.0148 Cl     28  UNL28      -0.0870
    242 CL         14.5731    0.0076    2.0148 Cl     28  UNL28      -0.0870
    243 CL         16.9965   -1.6086    2.0147 Cl     28  UNL28      -0.0870
    244 C          15.3181   -1.5000    1.4573 C.3    28  UNL28       0.1805
    245 H          15.3181   -1.5000    0.3643 H      28  UNL28       0.0806
    246 CL         16.9974   -1.4102    5.9902 Cl     28  UNL28      -0.0870
    247 CL         14.5563   -2.9992    5.9902 Cl     28  UNL28      -0.0870
    248 CL         14.4008   -0.0905    5.9901 Cl     28  UNL28      -0.0870
    249 C          15.3182   -1.5001    5.4327 C.3    28  UNL28       0.1805
    250 H          15.3183   -1.5001    4.3397 H      28  UNL28       0.0806
    251 CL         15.2454   -2.9163   10.1655 Cl     28  UNL28      -0.0870
    252 CL         12.8414   -1.2716   10.1655 Cl     28  UNL28      -0.0870
    253 CL         15.4679   -0.0120   10.1654 Cl     28  UNL28      -0.0870
    254 C          14.5181   -1.4000    9.6080 C.3    28  UNL28       0.1805
    255 H          14.5182   -1.4001    8.5150 H      28  UNL28       0.0806
    256 CL         14.4220   -3.0789   13.5409 Cl     28  UNL28      -0.0870
    257 CL         13.1123   -0.4772   13.5409 Cl     28  UNL28      -0.0870
    258 CL         16.0204   -0.6439   13.5408 Cl     28  UNL28      -0.0870
    259 C          14.5181   -1.4000   12.9834 C.3    28  UNL28       0.1805
    260 H          14.5181   -1.4001   11.8904 H      28  UNL28       0.0806
    261 CL         13.2307   -0.3182   16.9163 Cl     28  UNL28      -0.0870
    262 CL         16.0989   -0.8260   16.9163 Cl     28  UNL28      -0.0870
    263 CL         14.2250   -3.0560   16.9162 Cl     28  UNL28      -0.0870
    264 C          14.5183   -1.4000   16.3588 C.3    28  UNL28       0.1805
    265 H          14.5182   -1.3999   15.2658 H      28  UNL28       0.0806
    266 CL         15.1099   -3.2082   20.9917 Cl     28  UNL28      -0.0870
    267 CL         12.9796   -1.2217   20.9917 Cl     28  UNL28      -0.0870
    268 CL         15.7652   -0.3701   20.9916 Cl     28  UNL28      -0.0870
    269 C          14.6181   -1.6000   20.4342 C.3    28  UNL28       0.1805
    270 H          14.6182   -1.6001   19.3412 H      28  UNL28       0.0806
    271 CL         15.1013   -2.5789   25.2771 Cl     28  UNL28      -0.0870
    272 CL         13.8120    0.0228   25.5076 Cl     28  UNL28      -0.0870
    273 CL         16.6747   -0.1439   24.9956 Cl     28  UNL28      -0.0870
    274 C          15.0977   -0.9000   24.7114 C.3    28  UNL28       0.1805
    275 H          14.9053   -0.9001   23.6354 H      28  UNL28       0.0806
    276 CL         17.6208    4.5130   -2.5869 Cl     28  UNL28      -0.0870
    277 CL         16.3203    6.8877   -1.5128 Cl     28  UNL28      -0.0870
    278 CL         14.7134    4.6740   -2.5140 Cl     28  UNL28      -0.0870
    279 C          16.2182    5.1286   -1.6966 C.3    28  UNL28       0.1805
    280 H          16.2183    4.6781   -0.7008 H      28  UNL28       0.0806
    281 CL         14.3855    7.2372    2.5148 Cl     28  UNL28      -0.0870
    282 CL         16.8999    5.7669    2.5148 Cl     28  UNL28      -0.0870
    283 CL         14.3692    4.3245    2.5147 Cl     28  UNL28      -0.0870
    284 C          15.2183    5.7763    1.9573 C.3    28  UNL28       0.1805
    285 H          15.2182    5.7764    0.8643 H      28  UNL28       0.0806
    286 CL         17.1554    6.2603    6.3902 Cl     28  UNL28      -0.0870
    287 CL         15.0321    4.2663    6.3902 Cl     28  UNL28      -0.0870
    288 CL         14.3670    7.1023    6.3901 Cl     28  UNL28      -0.0870
    289 C          15.5182    5.8762    5.8327 C.3    28  UNL28       0.1805
    290 H          15.5183    5.8762    4.7397 H      28  UNL28       0.0806
    291 CL         13.9356    6.6448   10.1655 Cl     28  UNL28      -0.0870
    292 CL         16.8020    7.1626   10.1655 Cl     28  UNL28      -0.0870
    293 CL         15.8171    4.4212   10.1654 Cl     28  UNL28      -0.0870
    294 C          15.5183    6.0763    9.6080 C.3    28  UNL28       0.1805
    295 H          15.5182    6.0764    8.5150 H      28  UNL28       0.0806
    296 CL         16.4356    7.2364   14.0409 Cl     28  UNL28      -0.0870
    297 CL         15.6142    4.4418   14.0409 Cl     28  UNL28      -0.0870
    298 CL         13.6047    6.5506   14.0408 Cl     28  UNL28      -0.0870
    299 C          15.2183    6.0762   13.4834 C.3    28  UNL28       0.1805
    300 H          15.2183    6.0763   12.3904 H      28  UNL28       0.0806
    301 CL         13.0604    7.2145   18.1163 Cl     28  UNL28      -0.0870
    302 CL         15.9731    7.2196   18.1163 Cl     28  UNL28      -0.0870
    303 CL         14.5211    4.6945   18.1162 Cl     28  UNL28      -0.0870
    304 C          14.5183    6.3763   17.5588 C.3    28  UNL28       0.1805
    305 H          14.5182    6.3764   16.4658 H      28  UNL28       0.0806
    306 CL         15.4622    6.8425   22.0917 Cl     28  UNL28      -0.0870
    307 CL         13.7231    4.5059   22.0917 Cl     28  UNL28      -0.0870
    308 CL         12.5691    7.1804   22.0916 Cl     28  UNL28      -0.0870
    309 C          13.9182    6.1762   21.5342 C.3    28  UNL28       0.1805
    310 H          13.9183    6.1762   20.4412 H      28  UNL28       0.0806
    311 CL         14.6848    3.6516   25.4670 Cl     28  UNL28      -0.0870
    312 CL         15.7976    6.3434   25.4670 Cl     28  UNL28      -0.0870
    313 CL         17.5724    4.0337   25.4669 Cl     28  UNL28      -0.0870
    314 C          16.0182    4.6763   24.9095 C.3    28  UNL28       0.1805
    315 H          16.0181    4.6763   23.8165 H      28  UNL28       0.0806
@<TRIPOS>BOND
     1     1     4    1
     2     2     4    1
     3     3     4    1
     4     4     5    1
     5     6     9    1
     6     7     9    1
     7     8     9    1
     8     9    10    1
     9    11    14    1
    10    12    14    1
    11    13    14    1
    12    14    15    1
    13    16    19    1
    14    17    19    1
    15    18    19    1
    16    19    20    1
    17    21    24    1
    18    22    24    1
    19    23    24    1
    20    24    25    1
    21    26    29    1
    22    27    29    1
    23    28    29    1
    24    29    30    1
    25    31    34    1
    26    32    34    1
    27    33    34    1
    28    34    35    1
    29    36    39    1
    30    37    39    1
    31    38    39    1
    32    39    40    1
    33    41    44    1
    34    42    44    1
    35    43    44    1
    36    44    45    1
    37    46    49    1
    38    47    49    1
    39    48    49    1
    40    49    50    1
    41    51    54    1
    42    52    54    1
    43    53    54    1
    44    54    55    1
    45    56    59    1
    46    57    59    1
    47    58    59    1
    48    59    60    1
    49    61    64    1
    50    62    64    1
    51    63    64    1
    52    64    65    1
    53    66    69    1
    54    67    69    1
    55    68    69    1
    56    69    70    1
    57    71    74    1
    58    72    74    1
    59    73    74    1
    60    74    75    1
    61    76    79    1
    62    77    79    1
    63    78    79    1
    64    79    80    1
    65    81    84    1
    66    82    84    1
    67    83    84    1
    68    84    85    1
    69    86    89    1
    70    87    89    1
    71    88    89    1
    72    89    90    1
    73    91    94    1
    74    92    94    1
    75    93    94    1
    76    94    95    1
    77    96    99    1
    78    97    99    1
    79    98    99    1
    80    99   100    1
    81   101   104    1
    82   102   104    1
    83   103   104    1
    84   104   105    1
    85   106   109    1
    86   107   109    1
    87   108   109    1
    88   109   110    1
    89   111   114    1
    90   112   114    1
    91   113   114    1
    92   114   115    1
    93   116   119    1
    94   117   119    1
    95   118   119    1
    96   119   120    1
    97   121   124    1
    98   122   124    1
    99   123   124    1
   100   124   125    1
   101   126   129    1
   102   127   129    1
   103   128   129    1
   104   129   130    1
   105   131   134    1
   106   132   134    1
   107   133   134    1
   108   134   135    1
   109   136   139    1
   110   137   139    1
   111   138   139    1
   112   139   140    1
   113   141   144    1
   114   142   144    1
   115   143   144    1
   116   144   145    1
   117   146   149    1
   118   147   149    1
   119   148   149    1
   120   149   150    1
   121   151   154    1
   122   152   154    1
   123   153   154    1
   124   154   155    1
   125   156   159    1
   126   157   159    1
   127   158   159    1
   128   159   160    1
   129   161   164    1
   130   162   164    1
   131   163   164    1
   132   164   165    1
   133   166   169    1
   134   167   169    1
   135   168   169    1
   136   169   170    1
   137   171   174    1
   138   172   174    1
   139   173   174    1
   140   174   175    1
   141   176   179    1
   142   177   179    1
   143   178   179    1
   144   179   180    1
   145   181   184    1
   146   182   184    1
   147   183   184    1
   148   184   185    1
   149   186   189    1
   150   187   189    1
   151   188   189    1
   152   189   190    1
   153   191   194    1
   154   192   194    1
   155   193   194    1
   156   194   195    1
   157   196   199    1
   158   197   199    1
   159   198   199    1
   160   199   200    1
   161   201   204    1
   162   202   204    1
   163   203   204    1
   164   204   205    1
   165   206   209    1
   166   207   209    1
   167   208   209    1
   168   209   210    1
   169   211   214    1
   170   212   214    1
   171   213   214    1
   172   214   215    1
   173   216   219    1
   174   217   219    1
   175   218   219    1
   176   219   220    1
   177   221   224    1
   178   222   224    1
   179   223   224    1
   180   224   225    1
   181   226   229    1
   182   227   229    1
   183   228   229    1
   184   229   230    1
   185   231   234    1
   186   232   234    1
   187   233   234    1
   188   234   235    1
   189   236   239    1
   190   237   239    1
   191   238   239    1
   192   239   240    1
   193   241   244    1
   194   242   244    1
   195   243   244    1
   196   244   245    1
   197   246   249    1
   198   247   249    1
   199   248   249    1
   200   249   250    1
   201   251   254    1
   202   252   254    1
   203   253   254    1
   204   254   255    1
   205   256   259    1
   206   257   259    1
   207   258   259    1
   208   259   260    1
   209   261   264    1
   210   262   264    1
   211   263   264    1
   212   264   265    1
   213   266   269    1
   214   267   269    1
   215   268   269    1
   216   269   270    1
   217   271   274    1
   218   272   274    1
   219   273   274    1
   220   274   275    1
   221   276   279    1
   222   277   279    1
   223   278   279    1
   224   279   280    1
   225   281   284    1
   226   282   284    1
   227   283   284    1
   228   284   285    1
   229   286   289    1
   230   287   289    1
   231   288   289    1
   232   289   290    1
   233   291   294    1
   234   292   294    1
   235   293   294    1
   236   294   295    1
   237   296   299    1
   238   297   299    1
   239   298   299    1
   240   299   300    1
   241   301   304    1
   242   302   304    1
   243   303   304    1
   244   304   305    1
   245   306   309    1
   246   307   309    1
   247   308   309    1
   248   309   310    1
   249   311   314    1
   250   312   314    1
   251   313   314    1
   252   314   315    1
