@<TRIPOS>MOLECULE
*****
 305 244 0 0 0
SMALL
GASTEIGER

@<TRIPOS>ATOM
      1 CL         -3.0994   22.5431    6.0974 Cl      1  UNL1       -0.0870
      2 CL         -2.1891   25.1209    5.0922 Cl      1  UNL1       -0.0870
      3 CL         -1.6291   24.3509    7.8451 Cl      1  UNL1       -0.0870
      4 C          -1.8262   23.7722    6.1821 C.3     1  UNL1        0.1805
      5 H          -0.8858   23.3156    5.8631 H       1  UNL1        0.0806
      6 CL         -1.1027    1.3094    0.5265 Cl      2  UNL2       -0.0870
      7 CL          1.7654    1.1817    0.0351 Cl      2  UNL2       -0.0870
      8 CL         -0.1085    0.6205   -2.1232 Cl      2  UNL2       -0.0870
      9 C           0.1848    1.5767   -0.6607 C.3     2  UNL2        0.1805
     10 H           0.1847    2.6346   -0.9358 H       2  UNL2        0.0806
     11 CL          0.1885    0.3414    4.4855 Cl      3  UNL3       -0.0870
     12 CL          0.9024    2.8422    3.1739 Cl      3  UNL3       -0.0870
     13 CL          2.4350    0.4248    2.6334 Cl      3  UNL3       -0.0870
     14 C           0.8321    1.0797    3.0092 C.3     3  UNL3        0.1805
     15 H           0.1594    0.8379    2.1824 H       3  UNL3        0.0806
     16 CL          0.5632    3.1578    7.7326 Cl      4  UNL4       -0.0870
     17 CL         -0.8335    0.6812    7.1003 Cl      4  UNL4       -0.0870
     18 CL         -1.3619    3.0886    5.5478 Cl      4  UNL4       -0.0870
     19 C          -0.1369    2.1699    6.4392 C.3     4  UNL4        0.1805
     20 H           0.6616    1.8972    5.7444 H       4  UNL4        0.0806
     21 CL          0.2451    4.1413    1.0181 Cl      5  UNL5       -0.0870
     22 CL          2.3138    5.3958    2.6401 Cl      5  UNL5       -0.0870
     23 CL          3.0480    3.8560    0.2789 Cl      5  UNL5       -0.0870
     24 C           1.8337    4.9254    1.0009 C.3     5  UNL5        0.1805
     25 H           1.7645    5.8291    0.3900 H       5  UNL5        0.0806
     26 CL          1.6198    7.4674    4.1732 Cl      6  UNL6       -0.0870
     27 CL          0.3101    5.0583    5.1555 Cl      6  UNL6       -0.0870
     28 CL          3.2182    5.2127    5.0926 Cl      6  UNL6       -0.0870
     29 C           1.7159    6.1232    5.3233 C.3     6  UNL6        0.1805
     30 H           1.7159    6.5360    6.3354 H       6  UNL6        0.0806
     31 CL          0.1979   10.4548   -1.4128 Cl      7  UNL7       -0.0870
     32 CL         -1.1118    8.8978    0.6715 Cl      7  UNL7       -0.0870
     33 CL          1.7963    8.9976    0.5381 Cl      7  UNL7       -0.0870
     34 C           0.2940    9.8967    0.2659 C.3     7  UNL7        0.1805
     35 H           0.2940   10.7724    0.9199 H       7  UNL7        0.0806
     36 CL         -1.6340   11.3388    3.9604 Cl      8  UNL8       -0.0870
     37 CL          1.2342   10.8310    3.9604 Cl      8  UNL8       -0.0870
     38 CL         -0.6398    8.6009    3.9603 Cl      8  UNL8       -0.0870
     39 C          -0.3464   10.2570    3.4029 C.3     8  UNL8        0.1805
     40 H          -0.3465   10.2571    2.3099 H       8  UNL8        0.0806
     41 CL          0.6675    9.7367    6.4966 Cl      9  UNL9       -0.0870
     42 CL          3.0453   10.1832    8.1186 Cl      9  UNL9       -0.0870
     43 CL          3.1908    8.4836    5.7574 Cl      9  UNL9       -0.0870
     44 C           2.4304    9.9118    6.4794 C.3     9  UNL9        0.1805
     45 H           2.6835   10.7820    5.8685 H       9  UNL9        0.0806
     46 CL          2.9311   16.9715   -0.1275 Cl     10  UNL10      -0.0870
     47 CL          1.6305   14.3652   -0.1275 Cl     10  UNL10      -0.0870
     48 CL          0.0237   16.7948   -0.1276 Cl     10  UNL10      -0.0870
     49 C           1.5285   16.0437   -0.6850 C.3    10  UNL10       0.1805
     50 H           1.5286   16.0438   -1.7780 H      10  UNL10       0.0806
     51 CL          0.0691   17.6568    3.3666 Cl     11  UNL11      -0.0870
     52 CL          2.9373   17.1491    3.3666 Cl     11  UNL11      -0.0870
     53 CL          1.0634   14.9190    3.3665 Cl     11  UNL11      -0.0870
     54 C           1.3567   16.5751    2.8091 C.3    11  UNL11       0.1805
     55 H           1.3566   16.5751    1.7161 H      11  UNL11       0.0806
     56 CL          0.2530   11.8221    8.1393 Cl     12  UNL12      -0.0870
     57 CL          0.8119   14.6155    7.5322 Cl     12  UNL12      -0.0870
     58 CL         -0.3216   12.8791    5.4866 Cl     12  UNL12      -0.0870
     59 C          -0.2657   13.2446    7.2194 C.3    12  UNL12       0.1805
     60 H          -1.2726   13.5170    7.5461 H      12  UNL12       0.0806
     61 CL         -0.1496   21.5530    0.9663 Cl     13  UNL13      -0.0870
     62 CL          2.7186   21.0453    0.9663 Cl     13  UNL13      -0.0870
     63 CL          0.8446   18.8152    0.9662 Cl     13  UNL13      -0.0870
     64 C           1.1379   20.4713    0.4088 C.3    13  UNL13       0.1805
     65 H           1.1379   20.4713   -0.6842 H      13  UNL13       0.0806
     66 CL          0.7315   24.3165    0.1361 Cl     14  UNL14      -0.0870
     67 CL          3.0474   23.2739    1.5623 Cl     14  UNL14      -0.0870
     68 CL          3.0467   23.3587   -1.3494 Cl     14  UNL14      -0.0870
     69 C           2.4964   24.1612    0.1313 C.3    14  UNL14       0.1805
     70 H           2.9299   25.1641    0.1603 H      14  UNL14       0.0806
     71 CL          3.6030   22.0607    5.9232 Cl     15  UNL15      -0.0870
     72 CL          2.3024   19.4544    5.9232 Cl     15  UNL15      -0.0870
     73 CL          0.6956   21.8840    5.9231 Cl     15  UNL15      -0.0870
     74 C           2.2004   21.1329    5.3657 C.3    15  UNL15       0.1805
     75 H           2.2005   21.1330    4.2727 H      15  UNL15       0.0806
     76 CL          4.7624    0.6950    1.3390 Cl     16  UNL16      -0.0870
     77 CL          7.1096    2.3483    0.8476 Cl     16  UNL16      -0.0870
     78 CL          5.9704    0.7580   -1.3107 Cl     16  UNL16      -0.0870
     79 C           5.6175    1.6940    0.1518 C.3    16  UNL16       0.1805
     80 H           4.9704    2.5308   -0.1233 H      16  UNL16       0.0806
     81 CL          5.0274    3.2249    2.3782 Cl     17  UNL17      -0.0870
     82 CL          3.7177    1.6679    4.4625 Cl     17  UNL17      -0.0870
     83 CL          6.6258    1.7677    4.3290 Cl     17  UNL17      -0.0870
     84 C           5.1235    2.6668    4.0569 C.3    17  UNL17       0.1805
     85 H           5.1235    3.5425    4.7109 H      17  UNL17       0.0806
     86 CL          2.6331    3.1557    6.1586 Cl     18  UNL18      -0.0870
     87 CL          2.6315    0.3337    6.8802 Cl     18  UNL18      -0.0870
     88 CL          5.1206    1.8461    6.9212 Cl     18  UNL18      -0.0870
     89 C           3.3701    1.9147    7.1861 C.3    18  UNL18       0.1805
     90 H           3.1905    2.1820    8.2306 H      18  UNL18       0.0806
     91 CL          6.7068    4.6350    0.2124 Cl     19  UNL19      -0.0870
     92 CL          7.4906    7.2367    1.2617 Cl     19  UNL19      -0.0870
     93 CL          5.7501    7.0700   -1.0681 Cl     19  UNL19      -0.0870
     94 C           6.2026    6.3139    0.4691 C.3    19  UNL19       0.1805
     95 H           5.3270    6.3138    1.1232 H      19  UNL19       0.0806
     96 CL          4.9218    7.1879    3.7196 Cl     20  UNL20      -0.0870
     97 CL          6.8114    5.0407    3.1688 Cl     20  UNL20      -0.0870
     98 CL          7.6572    7.3671    4.7042 Cl     20  UNL20      -0.0870
     99 C           6.3105    6.2763    4.3354 C.3    20  UNL20       0.1805
    100 H           6.0106    5.7755    5.2595 H      20  UNL20       0.0806
    101 CL          6.3586    6.5728    8.2357 Cl     21  UNL21      -0.0870
    102 CL          4.7648    4.1348    8.2357 Cl     21  UNL21      -0.0870
    103 CL          3.4503    6.7342    8.2356 Cl     21  UNL21      -0.0870
    104 C           4.8579    5.8138    7.6782 C.3    21  UNL21       0.1805
    105 H           4.8580    5.8139    6.5852 H      21  UNL21       0.0806
    106 CL          2.7111   11.0504   -1.2237 Cl     22  UNL22      -0.0870
    107 CL          5.5792   10.9226   -0.7323 Cl     22  UNL22      -0.0870
    108 CL          3.7053   10.3612    1.4260 Cl     22  UNL22      -0.0870
    109 C           3.9986   10.2386   -0.3171 C.3    22  UNL22       0.1805
    110 H           3.9985    9.1808   -0.5922 H      22  UNL22       0.0806
    111 CL          7.3386    9.8912    3.7777 Cl     23  UNL23      -0.0870
    112 CL          6.0381    9.2352    1.2553 Cl     23  UNL23      -0.0870
    113 CL          4.4313    9.8468    3.6067 Cl     23  UNL23      -0.0870
    114 C           5.9361   10.1972    2.7395 C.3    23  UNL23       0.1805
    115 H           5.9362   11.2550    2.4645 H      23  UNL23       0.0806
    116 CL          5.6731    8.7031    6.4603 Cl     24  UNL24      -0.0870
    117 CL          5.4998   11.3048    5.1622 Cl     24  UNL24      -0.0870
    118 CL          5.8847   11.1381    8.0447 Cl     24  UNL24      -0.0870
    119 C           6.2384   10.3820    6.4818 C.3    24  UNL24       0.1805
    120 H           7.3218   10.3819    6.3372 H      24  UNL24       0.0806
    121 CL          5.3884   15.8745   -0.2876 Cl     25  UNL25      -0.0870
    122 CL          4.2263   13.4184    0.7617 Cl     25  UNL25      -0.0870
    123 CL          5.9721   13.3243   -1.5681 Cl     25  UNL25      -0.0870
    124 C           5.6372   14.1393   -0.0309 C.3    25  UNL25       0.1805
    125 H           6.5031   14.0091    0.6232 H      25  UNL25       0.0806
    126 CL          5.6631   13.8316    3.6166 Cl     26  UNL26      -0.0870
    127 CL          5.5292   16.7412    3.6166 Cl     26  UNL26      -0.0870
    128 CL          8.1160   15.4023    3.6165 Cl     26  UNL26      -0.0870
    129 C           6.4360   15.3251    3.0591 C.3    26  UNL26       0.1805
    130 H           6.4359   15.3250    1.9661 H      26  UNL26       0.0806
    131 CL          3.4805   13.0524    5.7513 Cl     27  UNL27      -0.0870
    132 CL          2.1708   15.6541    5.7513 Cl     27  UNL27      -0.0870
    133 CL          5.0789   15.4874    5.7512 Cl     27  UNL27      -0.0870
    134 C           3.5766   14.7313    5.1938 C.3    27  UNL27       0.1805
    135 H           3.5766   14.7312    4.1008 H      27  UNL27       0.0806
    136 CL          5.9304   20.0873   -2.2878 Cl     28  UNL28      -0.0870
    137 CL          7.4648   19.4642    0.1083 Cl     28  UNL28      -0.0870
    138 CL          4.5534   19.4412    0.1963 Cl     28  UNL28      -0.0870
    139 C           5.9830   19.1247   -0.8014 C.3    28  UNL28       0.1805
    140 H           5.9830   18.0669   -1.0766 H      28  UNL28       0.0806
    141 CL          6.4438   18.7283    2.2419 Cl     28  UNL28      -0.0870
    142 CL          4.8777   19.3763    4.6108 Cl     28  UNL28      -0.0870
    143 CL          7.1146   21.0729    3.8346 Cl     28  UNL28      -0.0870
    144 C           5.8022   20.0356    3.2509 C.3    28  UNL28       0.1805
    145 H           5.1295   20.6430    2.6400 H      28  UNL28       0.0806
    146 CL          8.0730   20.0864    7.4232 Cl     28  UNL28      -0.0870
    147 CL          6.7725   17.4801    7.4232 Cl     28  UNL28      -0.0870
    148 CL          5.1656   19.9097    7.4231 Cl     28  UNL28      -0.0870
    149 C           6.6704   19.1586    6.8657 C.3    28  UNL28       0.1805
    150 H           6.6705   19.1587    5.7727 H      28  UNL28       0.0806
    151 CL          7.0030   25.4353    1.0823 Cl     28  UNL28      -0.0870
    152 CL          7.1742   22.5277    1.0514 Cl     28  UNL28      -0.0870
    153 CL          5.3787   23.9006   -0.7860 Cl     28  UNL28      -0.0870
    154 C           6.9273   23.9826    0.0711 C.3    28  UNL28       0.1805
    155 H           7.7283   24.0377   -0.6705 H      28  UNL28       0.0806
    156 CL          4.7412   22.4208    3.7104 Cl     28  UNL28      -0.0870
    157 CL          4.6073   25.3305    3.7104 Cl     28  UNL28      -0.0870
    158 CL          7.1942   23.9915    3.7103 Cl     28  UNL28      -0.0870
    159 C           5.5141   23.9143    3.1529 C.3    28  UNL28       0.1805
    160 H           5.5141   23.9142    2.0599 H      28  UNL28       0.0806
    161 CL          6.1581   22.4998    6.1393 Cl     28  UNL28      -0.0870
    162 CL          7.5106   24.9555    6.9292 Cl     28  UNL28      -0.0870
    163 CL          4.6620   24.6313    7.4441 Cl     28  UNL28      -0.0870
    164 C           6.2257   23.8053    7.3350 C.3    28  UNL28       0.1805
    165 H           6.4519   23.3669    8.3104 H      28  UNL28       0.0806
    166 CL         11.7931    0.7985    0.7475 Cl     28  UNL28      -0.0870
    167 CL         10.4925   -1.8078    0.7475 Cl     28  UNL28      -0.0870
    168 CL          8.8857    0.6218    0.7474 Cl     28  UNL28      -0.0870
    169 C          10.3905   -0.1293    0.1900 C.3    28  UNL28       0.1805
    170 H          10.3906   -0.1292   -0.9030 H      28  UNL28       0.0806
    171 CL          8.6185    3.4157    2.5089 Cl     28  UNL28      -0.0870
    172 CL         10.6961    2.5990    4.3800 Cl     28  UNL28      -0.0870
    173 CL          8.8323    0.6267    3.3211 Cl     28  UNL28      -0.0870
    174 C           9.7280    2.1162    2.9770 C.3    28  UNL28       0.1805
    175 H          10.4055    1.9247    2.1410 H      28  UNL28       0.0806
    176 CL         11.5548    2.8324    7.4425 Cl     28  UNL28      -0.0870
    177 CL         10.1466    0.3544    6.8417 Cl     28  UNL28      -0.0870
    178 CL          9.0955    2.1749    8.8581 Cl     28  UNL28      -0.0870
    179 C           9.9695    2.0505    7.3219 C.3    28  UNL28       0.1805
    180 H           9.3890    2.5669    6.5532 H      28  UNL28       0.0806
    181 CL         10.2592    6.6613    2.0541 Cl     28  UNL28      -0.0870
    182 CL         13.1274    6.1536    2.0541 Cl     28  UNL28      -0.0870
    183 CL         11.2535    3.9235    2.0540 Cl     28  UNL28      -0.0870
    184 C          11.5468    5.5796    1.4966 C.3    28  UNL28       0.1805
    185 H          11.5467    5.5796    0.4036 H      28  UNL28       0.0806
    186 CL         12.2462    4.7345    5.6909 Cl     28  UNL28      -0.0870
    187 CL         10.9456    7.0106    6.9606 Cl     28  UNL28      -0.0870
    188 CL          9.3388    4.8888    5.7770 Cl     28  UNL28      -0.0870
    189 C          10.8436    5.2731    6.6297 C.3    28  UNL28       0.1805
    190 H          10.8437    4.7406    7.5842 H      28  UNL28       0.0806
    191 CL          9.7318   10.9124    1.5273 Cl     28  UNL28      -0.0870
    192 CL          8.4221    9.3554   -0.5571 Cl     28  UNL28      -0.0870
    193 CL         11.3302    9.4550   -0.4235 Cl     28  UNL28      -0.0870
    194 C           9.8279    9.4610    0.5159 C.3    28  UNL28       0.1805
    195 H           9.8279    8.5854    1.1701 H      28  UNL28       0.0806
    196 CL         13.0431    9.1065    4.1479 Cl     28  UNL28      -0.0870
    197 CL         11.7425    6.5002    4.1479 Cl     28  UNL28      -0.0870
    198 CL         10.1357    8.9298    4.1478 Cl     28  UNL28      -0.0870
    199 C          11.6405    8.1788    3.5904 C.3    28  UNL28       0.1805
    200 H          11.6406    8.1788    2.4974 H      28  UNL28       0.0806
    201 CL          8.9864    9.1269    6.3872 Cl     28  UNL28      -0.0870
    202 CL          9.8556   11.3848    8.0092 Cl     28  UNL28      -0.0870
    203 CL         11.3783   10.6158    5.6480 Cl     28  UNL28      -0.0870
    204 C           9.7635   10.7189    6.3700 C.3    28  UNL28       0.1805
    205 H           9.1560   11.3915    5.7591 H      28  UNL28       0.0806
    206 CL         12.3385   14.9341    0.6161 Cl     28  UNL28      -0.0870
    207 CL          9.4376   14.8680    0.8701 Cl     28  UNL28      -0.0870
    208 CL         10.6609   15.5333   -1.6884 Cl     28  UNL28      -0.0870
    209 C          10.8123   14.5722   -0.2076 C.3    28  UNL28       0.1805
    210 H          10.8124   13.5144   -0.4826 H      28  UNL28       0.0806
    211 CL         11.7221   13.0872    1.9591 Cl     28  UNL28      -0.0870
    212 CL         11.9684   12.9594    4.8586 Cl     28  UNL28      -0.0870
    213 CL          9.4080   12.3980    3.5882 Cl     28  UNL28      -0.0870
    214 C          11.1688   12.2754    3.4333 C.3    28  UNL28       0.1805
    215 H          11.4350   11.2176    3.3640 H      28  UNL28       0.0806
    216 CL          8.3614   13.7575    6.5904 Cl     28  UNL28      -0.0870
    217 CL          9.2306   16.0153    8.2123 Cl     28  UNL28      -0.0870
    218 CL         10.7533   15.2463    5.8512 Cl     28  UNL28      -0.0870
    219 C           9.1385   15.3495    6.5732 C.3    28  UNL28       0.1805
    220 H           8.5310   16.0221    5.9623 H      28  UNL28       0.0806
    221 CL         12.5780   18.3474   -0.0911 Cl     28  UNL28      -0.0870
    222 CL         10.9099   20.0788   -1.7355 Cl     28  UNL28      -0.0870
    223 CL          9.7473   17.7496   -0.4285 Cl     28  UNL28      -0.0870
    224 C          10.9595   19.0358   -0.3042 C.3    28  UNL28       0.1805
    225 H          10.7264   19.6445    0.5732 H      28  UNL28       0.0806
    226 CL          9.7280   18.1155    3.0697 Cl     28  UNL28      -0.0870
    227 CL         12.5961   17.6078    3.0697 Cl     28  UNL28      -0.0870
    228 CL         10.7222   15.3777    3.0696 Cl     28  UNL28      -0.0870
    229 C          11.0155   17.0338    2.5122 C.3    28  UNL28       0.1805
    230 H          11.0154   17.0338    1.4192 H      28  UNL28       0.0806
    231 CL         11.1849   17.9017    5.3763 Cl     28  UNL28      -0.0870
    232 CL          9.8752   20.5034    5.3763 Cl     28  UNL28      -0.0870
    233 CL         12.7833   20.3367    5.3762 Cl     28  UNL28      -0.0870
    234 C          11.2810   19.5806    4.8188 C.3    28  UNL28       0.1805
    235 H          11.2810   19.5805    3.7258 H      28  UNL28       0.0806
    236 CL         10.8535   24.9388   -0.6119 Cl     28  UNL28      -0.0870
    237 CL         12.3880   22.4631   -0.6119 Cl     28  UNL28      -0.0870
    238 CL          9.4766   22.3721   -0.6120 Cl     28  UNL28      -0.0870
    239 C          10.9062   23.2580   -1.1694 C.3    28  UNL28       0.1805
    240 H          10.9062   23.2581   -2.2624 H      28  UNL28       0.0806
    241 CL         10.1380   23.6881    2.1647 Cl     28  UNL28      -0.0870
    242 CL          8.8283   21.0966    1.9348 Cl     28  UNL28      -0.0870
    243 CL         11.7364   21.2626    1.9496 Cl     28  UNL28      -0.0870
    244 C          10.2341   21.9665    2.5717 C.3    28  UNL28       0.1805
    245 H          10.2341   21.8700    3.6604 H      28  UNL28       0.0806
    246 CL         12.4493   22.9982    7.9232 Cl     28  UNL28      -0.0870
    247 CL         11.1488   20.3919    7.9232 Cl     28  UNL28      -0.0870
    248 CL          9.5419   22.8215    7.9231 Cl     28  UNL28      -0.0870
    249 C          11.0467   22.0704    7.3657 C.3    28  UNL28       0.1805
    250 H          11.0468   22.0705    6.2727 H      28  UNL28       0.0806
    251 CL         12.5658   -0.5336    5.9854 Cl     28  UNL28      -0.0870
    252 CL         13.4350   -3.2956    5.6689 Cl     28  UNL28      -0.0870
    253 CL         14.9577   -1.4737    7.3562 Cl     28  UNL28      -0.0870
    254 C          13.3429   -1.9155    6.7760 C.3    28  UNL28       0.1805
    255 H          12.7354   -2.2053    7.6371 H      28  UNL28       0.0806
    256 CL         15.8881    1.7516    3.6322 Cl     28  UNL28      -0.0870
    257 CL         14.5876   -0.8546    3.6322 Cl     28  UNL28      -0.0870
    258 CL         12.9807    1.5749    3.6321 Cl     28  UNL28      -0.0870
    259 C          14.4855    0.8239    3.0747 C.3    28  UNL28       0.1805
    260 H          14.4856    0.8239    1.9817 H      28  UNL28       0.0806
    261 CL         16.1807    2.4176    8.3686 Cl     28  UNL28      -0.0870
    262 CL         14.6147    3.0057    5.9841 Cl     28  UNL28      -0.0870
    263 CL         16.8516    1.1459    5.8354 Cl     28  UNL28      -0.0870
    264 C          15.5391    1.7675    6.8505 C.3    28  UNL28       0.1805
    265 H          14.8665    0.9394    7.0881 H      28  UNL28       0.0806
    266 CL         13.7293    7.6301    0.0756 Cl     28  UNL28      -0.0870
    267 CL         16.5974    7.1223    0.0756 Cl     28  UNL28      -0.0870
    268 CL         14.7235    4.8923    0.0755 Cl     28  UNL28      -0.0870
    269 C          15.0168    6.5483   -0.4819 C.3    28  UNL28       0.1805
    270 H          15.0167    6.5484   -1.5749 H      28  UNL28       0.0806
    271 CL         14.6066    5.1819    7.4623 Cl     28  UNL28      -0.0870
    272 CL         13.6754    7.7836    6.5414 Cl     28  UNL28      -0.0870
    273 CL         15.7431    7.6169    8.5862 Cl     28  UNL28      -0.0870
    274 C          15.0669    6.8608    7.1335 C.3    28  UNL28       0.1805
    275 H          15.8355    6.8607    6.3564 H      28  UNL28       0.0806
    276 CL         16.9037   11.1210    2.6383 Cl     28  UNL28      -0.0870
    277 CL         15.6032   10.4650    5.1607 Cl     28  UNL28      -0.0870
    278 CL         13.9963   11.0764    2.8093 Cl     28  UNL28      -0.0870
    279 C          15.5012   10.3479    3.3959 C.3    28  UNL28       0.1805
    280 H          15.5012    9.2901    3.1208 H      28  UNL28       0.0806
    281 CL         13.5580   12.7971    7.8920 Cl     28  UNL28      -0.0870
    282 CL         15.0924   10.3214    7.8920 Cl     28  UNL28      -0.0870
    283 CL         12.1810   10.2304    7.8919 Cl     28  UNL28      -0.0870
    284 C          13.6106   11.1163    7.3345 C.3    28  UNL28       0.1805
    285 H          13.6106   11.1164    6.2415 H      28  UNL28       0.0806
    286 CL         15.7325   13.3493    3.1880 Cl     28  UNL28      -0.0870
    287 CL         14.6496   15.9510    3.9246 Cl     28  UNL28      -0.0870
    288 CL         17.0541   15.7843    2.2889 Cl     28  UNL28      -0.0870
    289 C          15.4984   15.0282    2.6730 C.3    28  UNL28       0.1805
    290 H          14.8836   15.0281    1.7692 H      28  UNL28       0.0806
    291 CL         14.5767   15.5183    6.7480 Cl     28  UNL28      -0.0870
    292 CL         15.7125   12.9121    6.1144 Cl     28  UNL28      -0.0870
    293 CL         17.1158   15.3416    5.3317 Cl     28  UNL28      -0.0870
    294 C          16.0732   14.5906    6.5516 C.3    28  UNL28       0.1805
    295 H          16.6056   14.5906    7.5061 H      28  UNL28       0.0806
    296 CL         12.7331   22.9385    3.6322 Cl     28  UNL28      -0.0870
    297 CL         11.4234   25.5402    3.6322 Cl     28  UNL28      -0.0870
    298 CL         14.3315   25.3735    3.6321 Cl     28  UNL28      -0.0870
    299 C          12.8292   24.6174    3.0747 C.3    28  UNL28       0.1805
    300 H          12.8292   24.6173    1.9817 H      28  UNL28       0.0806
    301 CL         17.0287   24.9045    6.1576 Cl     28  UNL28      -0.0870
    302 CL         15.7282   22.2982    6.1576 Cl     28  UNL28      -0.0870
    303 CL         14.1213   24.7278    6.1575 Cl     28  UNL28      -0.0870
    304 C          15.6262   23.9767    5.6001 C.3    28  UNL28       0.1805
    305 H          15.6262   23.9768    4.5071 H      28  UNL28       0.0806
@<TRIPOS>BOND
     1     1     4    1
     2     2     4    1
     3     3     4    1
     4     4     5    1
     5     6     9    1
     6     7     9    1
     7     8     9    1
     8     9    10    1
     9    11    14    1
    10    12    14    1
    11    13    14    1
    12    14    15    1
    13    16    19    1
    14    17    19    1
    15    18    19    1
    16    19    20    1
    17    21    24    1
    18    22    24    1
    19    23    24    1
    20    24    25    1
    21    26    29    1
    22    27    29    1
    23    28    29    1
    24    29    30    1
    25    31    34    1
    26    32    34    1
    27    33    34    1
    28    34    35    1
    29    36    39    1
    30    37    39    1
    31    38    39    1
    32    39    40    1
    33    41    44    1
    34    42    44    1
    35    43    44    1
    36    44    45    1
    37    46    49    1
    38    47    49    1
    39    48    49    1
    40    49    50    1
    41    51    54    1
    42    52    54    1
    43    53    54    1
    44    54    55    1
    45    56    59    1
    46    57    59    1
    47    58    59    1
    48    59    60    1
    49    61    64    1
    50    62    64    1
    51    63    64    1
    52    64    65    1
    53    66    69    1
    54    67    69    1
    55    68    69    1
    56    69    70    1
    57    71    74    1
    58    72    74    1
    59    73    74    1
    60    74    75    1
    61    76    79    1
    62    77    79    1
    63    78    79    1
    64    79    80    1
    65    81    84    1
    66    82    84    1
    67    83    84    1
    68    84    85    1
    69    86    89    1
    70    87    89    1
    71    88    89    1
    72    89    90    1
    73    91    94    1
    74    92    94    1
    75    93    94    1
    76    94    95    1
    77    96    99    1
    78    97    99    1
    79    98    99    1
    80    99   100    1
    81   101   104    1
    82   102   104    1
    83   103   104    1
    84   104   105    1
    85   106   109    1
    86   107   109    1
    87   108   109    1
    88   109   110    1
    89   111   114    1
    90   112   114    1
    91   113   114    1
    92   114   115    1
    93   116   119    1
    94   117   119    1
    95   118   119    1
    96   119   120    1
    97   121   124    1
    98   122   124    1
    99   123   124    1
   100   124   125    1
   101   126   129    1
   102   127   129    1
   103   128   129    1
   104   129   130    1
   105   131   134    1
   106   132   134    1
   107   133   134    1
   108   134   135    1
   109   136   139    1
   110   137   139    1
   111   138   139    1
   112   139   140    1
   113   141   144    1
   114   142   144    1
   115   143   144    1
   116   144   145    1
   117   146   149    1
   118   147   149    1
   119   148   149    1
   120   149   150    1
   121   151   154    1
   122   152   154    1
   123   153   154    1
   124   154   155    1
   125   156   159    1
   126   157   159    1
   127   158   159    1
   128   159   160    1
   129   161   164    1
   130   162   164    1
   131   163   164    1
   132   164   165    1
   133   166   169    1
   134   167   169    1
   135   168   169    1
   136   169   170    1
   137   171   174    1
   138   172   174    1
   139   173   174    1
   140   174   175    1
   141   176   179    1
   142   177   179    1
   143   178   179    1
   144   179   180    1
   145   181   184    1
   146   182   184    1
   147   183   184    1
   148   184   185    1
   149   186   189    1
   150   187   189    1
   151   188   189    1
   152   189   190    1
   153   191   194    1
   154   192   194    1
   155   193   194    1
   156   194   195    1
   157   196   199    1
   158   197   199    1
   159   198   199    1
   160   199   200    1
   161   201   204    1
   162   202   204    1
   163   203   204    1
   164   204   205    1
   165   206   209    1
   166   207   209    1
   167   208   209    1
   168   209   210    1
   169   211   214    1
   170   212   214    1
   171   213   214    1
   172   214   215    1
   173   216   219    1
   174   217   219    1
   175   218   219    1
   176   219   220    1
   177   221   224    1
   178   222   224    1
   179   223   224    1
   180   224   225    1
   181   226   229    1
   182   227   229    1
   183   228   229    1
   184   229   230    1
   185   231   234    1
   186   232   234    1
   187   233   234    1
   188   234   235    1
   189   236   239    1
   190   237   239    1
   191   238   239    1
   192   239   240    1
   193   241   244    1
   194   242   244    1
   195   243   244    1
   196   244   245    1
   197   246   249    1
   198   247   249    1
   199   248   249    1
   200   249   250    1
   201   251   254    1
   202   252   254    1
   203   253   254    1
   204   254   255    1
   205   256   259    1
   206   257   259    1
   207   258   259    1
   208   259   260    1
   209   261   264    1
   210   262   264    1
   211   263   264    1
   212   264   265    1
   213   266   269    1
   214   267   269    1
   215   268   269    1
   216   269   270    1
   217   271   274    1
   218   272   274    1
   219   273   274    1
   220   274   275    1
   221   276   279    1
   222   277   279    1
   223   278   279    1
   224   279   280    1
   225   281   284    1
   226   282   284    1
   227   283   284    1
   228   284   285    1
   229   286   289    1
   230   287   289    1
   231   288   289    1
   232   289   290    1
   233   291   294    1
   234   292   294    1
   235   293   294    1
   236   294   295    1
   237   296   299    1
   238   297   299    1
   239   298   299    1
   240   299   300    1
   241   301   304    1
   242   302   304    1
   243   303   304    1
   244   304   305    1
