@<TRIPOS>MOLECULE
*****
 300 240 0 0 0
SMALL
GASTEIGER

@<TRIPOS>ATOM
      1 CL         -0.3164    0.3416    1.0342 Cl      1  UNL1       -0.0870
      2 CL         -1.6261    2.7168    2.0960 Cl      1  UNL1       -0.0870
      3 CL          1.2820    2.5646    2.0279 Cl      1  UNL1       -0.0870
      4 C          -0.2203    2.1018    1.2104 C.3     1  UNL1        0.1805
      5 H          -0.2203    2.5478    0.2125 H       1  UNL1        0.0806
      6 CL          1.2918    2.3398    5.2704 Cl      2  UNL2       -0.0870
      7 CL         -0.0088    0.2780    6.8646 Cl      2  UNL2       -0.0870
      8 CL         -1.6156    2.2000    5.3784 Cl      2  UNL2       -0.0870
      9 C          -0.1108    1.2648    5.3968 C.3     2  UNL2        0.1805
     10 H          -0.1107    0.5963    4.5321 H       2  UNL2        0.0806
     11 CL         -0.0358    8.2187    0.7109 Cl      3  UNL3       -0.0870
     12 CL         -0.0668    5.3061    0.7109 Cl      3  UNL3       -0.0870
     13 CL         -2.5737    6.7894    0.7108 Cl      3  UNL3       -0.0870
     14 C          -0.8920    6.7714    0.1534 C.3     3  UNL3        0.1805
     15 H          -0.8920    6.7715   -0.9396 H       3  UNL3        0.0806
     16 CL         -2.4952    6.6845    3.9401 Cl      4  UNL4       -0.0870
     17 CL         -0.6467    6.7433    6.1903 Cl      4  UNL4       -0.0870
     18 CL         -0.1299    4.9847    3.9265 Cl      4  UNL4       -0.0870
     19 C          -0.8005    6.5433    4.4368 C.3     4  UNL4        0.1805
     20 H          -0.2317    7.3388    3.9486 H       4  UNL4        0.0806
     21 CL         -1.1248   12.9728   10.2594 Cl      5  UNL5       -0.0870
     22 CL          1.1442   14.5429    9.3265 Cl      5  UNL5       -0.0870
     23 CL         -0.3384   12.8724    7.4567 Cl      5  UNL5       -0.0870
     24 C          -0.4473   13.8896    8.9033 C.3     5  UNL5        0.1805
     25 H          -1.1159   14.7264    8.6857 H       5  UNL5        0.0806
     26 CL          3.9191   -2.4663   -0.9495 Cl      6  UNL6       -0.0870
     27 CL          4.7029    0.1354    0.0997 Cl      6  UNL6       -0.0870
     28 CL          2.9625   -0.0313   -2.2300 Cl      6  UNL6       -0.0870
     29 C           3.4150   -0.7874   -0.6929 C.3     6  UNL6        0.1805
     30 H           2.5393   -0.7875   -0.0388 H       6  UNL6        0.0806
     31 CL          4.5822   -0.4330    3.6705 Cl      7  UNL7       -0.0870
     32 CL          3.2817   -2.4948    2.0763 Cl      7  UNL7       -0.0870
     33 CL          1.6748   -0.5727    3.5624 Cl      7  UNL7       -0.0870
     34 C           3.1797   -0.8259    2.6620 C.3     7  UNL7        0.1805
     35 H           3.1797   -0.1573    1.7973 H       7  UNL7        0.0806
     36 CL          5.1873   -2.6709    5.5710 Cl      8  UNL8       -0.0870
     37 CL          3.6213   -2.0229    7.9399 Cl      8  UNL8       -0.0870
     38 CL          5.8582   -0.3263    7.1637 Cl      8  UNL8       -0.0870
     39 C           4.5458   -1.3636    6.5800 C.3     8  UNL8        0.1805
     40 H           3.8731   -0.7562    5.9690 H       8  UNL8        0.0806
     41 CL          2.6604   -0.5892   11.1713 Cl      9  UNL9       -0.0870
     42 CL          1.3598   -2.6511    9.5771 Cl      9  UNL9       -0.0870
     43 CL         -0.2470   -0.7290   11.0631 Cl      9  UNL9       -0.0870
     44 C           1.2578   -0.9822   10.1627 C.3     9  UNL9        0.1805
     45 H           1.2579   -0.3136    9.2981 H       9  UNL9        0.0806
     46 CL          4.0754    2.7350   -1.1995 Cl     10  UNL10      -0.0870
     47 CL          4.8592    5.3367   -0.1503 Cl     10  UNL10      -0.0870
     48 CL          3.1187    5.1700   -2.4800 Cl     10  UNL10      -0.0870
     49 C           3.5712    4.4139   -0.9429 C.3    10  UNL10       0.1805
     50 H           2.6956    4.4138   -0.2888 H      10  UNL10       0.0806
     51 CL          5.5822    4.8620    3.8111 Cl     11  UNL11      -0.0870
     52 CL          4.2817    2.8002    2.2169 Cl     11  UNL11      -0.0870
     53 CL          2.6748    4.7223    3.7030 Cl     11  UNL11      -0.0870
     54 C           4.1797    4.4691    2.8026 C.3    11  UNL11       0.1805
     55 H           4.1797    5.1377    1.9380 H      11  UNL11       0.0806
     56 CL          4.7030    1.9522    5.3366 Cl     12  UNL12      -0.0870
     57 CL          3.1369    2.6002    7.7055 Cl     12  UNL12      -0.0870
     58 CL          5.3738    4.2969    6.9293 Cl     12  UNL12      -0.0870
     59 C           4.0614    3.2595    6.3456 C.3    12  UNL12       0.1805
     60 H           3.3887    3.8669    5.7347 H      12  UNL12       0.0806
     61 CL          3.3479    5.9179    9.5832 Cl     13  UNL13      -0.0870
     62 CL          2.0473    3.8561   11.1775 Cl     13  UNL13      -0.0870
     63 CL          0.4405    5.7781    9.6912 Cl     13  UNL13      -0.0870
     64 C           1.9453    4.8429    9.7097 C.3    13  UNL13       0.1805
     65 H           1.9454    4.1744    8.8450 H      13  UNL13       0.0806
     66 CL          2.5835    7.5925   -0.7890 Cl     14  UNL14      -0.0870
     67 CL          1.3878   10.1942   -1.3235 Cl     14  UNL14      -0.0870
     68 CL          4.0428   10.0275   -0.1368 Cl     14  UNL14      -0.0870
     69 C           2.8987    9.2714   -1.2587 C.3    14  UNL14       0.1805
     70 H           3.3448    9.2713   -2.2566 H      14  UNL14       0.0806
     71 CL          4.1593   10.3945    3.3672 Cl     15  UNL15      -0.0870
     72 CL          4.7246    7.5371    3.3672 Cl     15  UNL15      -0.0870
     73 CL          1.9673    8.4763    3.3671 Cl     15  UNL15      -0.0870
     74 C           3.6172    8.8026    2.8097 C.3    15  UNL15       0.1805
     75 H           3.6172    8.8027    1.7167 H      15  UNL15       0.0806
     76 CL          4.8372    7.7849    8.0951 Cl     16  UNL16      -0.0870
     77 CL          3.4211    6.7918    5.7515 Cl     16  UNL16      -0.0870
     78 CL          3.1127    9.5701    6.5708 Cl     16  UNL16      -0.0870
     79 C           4.2226    8.1917    6.4840 C.3    16  UNL16       0.1805
     80 H           5.0702    8.4718    5.8533 H      16  UNL16       0.0806
     81 CL          1.8228   12.1491   11.1648 Cl     17  UNL17      -0.0870
     82 CL          3.7813    9.9931   11.1648 Cl     17  UNL17      -0.0870
     83 CL          0.9347    9.3751   11.1647 Cl     17  UNL17      -0.0870
     84 C           2.1797   10.5058   10.6073 C.3    17  UNL17       0.1805
     85 H           2.1797   10.5059    9.5143 H      17  UNL17       0.0806
     86 CL          9.9508    1.6385    2.1016 Cl     18  UNL18      -0.0870
     87 CL          8.6503   -0.9678    2.1016 Cl     18  UNL18      -0.0870
     88 CL          7.0434    1.4618    2.1015 Cl     18  UNL18      -0.0870
     89 C           8.5482    0.7107    1.5441 C.3    18  UNL18       0.1805
     90 H           8.5483    0.7107    0.4511 H      18  UNL18       0.0806
     91 CL          7.7620    1.6266    6.3019 Cl     19  UNL19      -0.0870
     92 CL         10.4303    2.7936    6.2539 Cl     19  UNL19      -0.0870
     93 CL          9.8906    0.3323    4.7926 Cl     19  UNL19      -0.0870
     94 C           9.2226    1.8821    5.3323 C.3    19  UNL19       0.1805
     95 H           8.9513    2.4660    4.4491 H      19  UNL19       0.0806
     96 CL          5.7333    2.9756   11.1321 Cl     20  UNL20      -0.0870
     97 CL          4.4236    1.4185    9.0477 Cl     20  UNL20      -0.0870
     98 CL          7.3317    1.5182    9.1813 Cl     20  UNL20      -0.0870
     99 C           5.8294    1.5242   10.1207 C.3    20  UNL20       0.1805
    100 H           5.8294    0.6486   10.7749 H      20  UNL20       0.0806
    101 CL          7.1514    6.9313    1.1953 Cl     21  UNL21      -0.0870
    102 CL         10.0195    6.4236    1.1953 Cl     21  UNL21      -0.0870
    103 CL          8.1456    4.1935    1.1952 Cl     21  UNL21      -0.0870
    104 C           8.4389    5.8496    0.6378 C.3    21  UNL21       0.1805
    105 H           8.4388    5.8497   -0.4552 H      21  UNL21       0.0806
    106 CL          7.4326    7.6501    5.1801 Cl     22  UNL22      -0.0870
    107 CL         10.3008    7.1423    5.1801 Cl     22  UNL22      -0.0870
    108 CL          8.4268    4.9123    5.1800 Cl     22  UNL22      -0.0870
    109 C           8.7201    6.5683    4.6226 C.3    22  UNL22       0.1805
    110 H           8.7201    6.5684    3.5296 H      22  UNL22       0.0806
    111 CL          8.2667    9.3752    9.6374 Cl     23  UNL23      -0.0870
    112 CL          5.9335    8.1389   10.8670 Cl     23  UNL23      -0.0870
    113 CL          7.6614    6.5732    9.1213 Cl     23  UNL23      -0.0870
    114 C           7.5969    7.8813   10.3146 C.3    23  UNL23       0.1805
    115 H           8.2044    7.5916   11.1757 H      23  UNL23       0.0806
    116 CL          6.4392   12.6395   -2.4726 Cl     24  UNL24      -0.0870
    117 CL          7.2953   14.5708   -0.4673 Cl     24  UNL24      -0.0870
    118 CL          6.4447   11.9064    0.3463 Cl     24  UNL24      -0.0870
    119 C           7.2510   12.8568   -0.9130 C.3    24  UNL24       0.1805
    120 H           8.2796   12.4994   -1.0080 H      24  UNL24       0.0806
    121 CL          8.0860   12.5664    2.6554 Cl     25  UNL25      -0.0870
    122 CL          9.2221   10.0294    3.5255 Cl     25  UNL25      -0.0870
    123 CL          9.4384   10.8420    0.7366 Cl     25  UNL25      -0.0870
    124 C           9.3986   11.4006    2.4176 C.3    25  UNL25       0.1805
    125 H          10.3459   11.9000    2.6366 H      25  UNL25       0.0806
    126 CL          5.7139   11.9580    5.4261 Cl     26  UNL26      -0.0870
    127 CL          8.5820   11.5563    5.7367 Cl     26  UNL26      -0.0870
    128 CL          6.7081    9.7921    7.1007 Cl     26  UNL26      -0.0870
    129 C           7.0014   10.7612    5.6467 C.3    26  UNL26       0.1805
    130 H           7.0013   10.0927    4.7820 H      26  UNL26       0.0806
    131 CL          7.5202   14.1731    8.0530 Cl     27  UNL27      -0.0870
    132 CL          9.7110   12.3176    8.5444 Cl     27  UNL27      -0.0870
    133 CL          7.8851   13.0198   10.7027 Cl     27  UNL27      -0.0870
    134 C           8.0422   12.7433    8.9596 C.3    27  UNL27       0.1805
    135 H           7.3951   11.9065    8.6845 H      27  UNL27       0.0806
    136 CL         10.5598   -1.4045   -2.5973 Cl     28  UNL28      -0.0870
    137 CL         10.9825   -0.5872    0.1663 Cl     28  UNL28      -0.0870
    138 CL         12.6306   -2.6868   -1.0000 Cl     28  UNL28      -0.0870
    139 C          11.7589   -1.1765   -1.3131 C.3    28  UNL28       0.1805
    140 H          12.4802   -0.4256   -1.6456 H      28  UNL28       0.0806
    141 CL         12.7249   -2.1526   11.1044 Cl     28  UNL28      -0.0870
    142 CL         12.8777    0.7555   11.1653 Cl     28  UNL28      -0.0870
    143 CL         11.7168   -0.5940    8.8596 Cl     28  UNL28      -0.0870
    144 C          11.9374   -0.6423   10.6170 C.3    28  UNL28       0.1805
    145 H          10.9522   -0.6005   11.0885 H      28  UNL28       0.0806
    146 CL         14.9288    4.4978    2.2422 Cl     28  UNL28      -0.0870
    147 CL         13.6282    1.8915    2.2422 Cl     28  UNL28      -0.0870
    148 CL         12.0214    4.3211    2.2421 Cl     28  UNL28      -0.0870
    149 C          13.5262    3.5701    1.6847 C.3    28  UNL28       0.1805
    150 H          13.5263    3.5701    0.5917 H      28  UNL28       0.0806
    151 CL         14.0938    4.3045    6.6886 Cl     28  UNL28      -0.0870
    152 CL         14.8776    2.5436    4.5048 Cl     28  UNL28      -0.0870
    153 CL         13.1371    1.5541    6.6206 Cl     28  UNL28      -0.0870
    154 C          13.5896    2.9633    5.6466 C.3    28  UNL28       0.1805
    155 H          12.7140    3.2821    5.0754 H      28  UNL28       0.0806
    156 CL         11.4303    3.3573    9.7302 Cl     28  UNL28      -0.0870
    157 CL         12.5275    5.6334   11.1793 Cl     28  UNL28      -0.0870
    158 CL         14.2925    3.5117   10.2478 Cl     28  UNL28      -0.0870
    159 C          12.8224    4.4392    9.9044 C.3    28  UNL28       0.1805
    160 H          12.9644    4.9716    8.9605 H      28  UNL28       0.0806
    161 CL         14.6944    9.5585    1.9766 Cl     28  UNL28      -0.0870
    162 CL         13.3938    6.9522    1.9766 Cl     28  UNL28      -0.0870
    163 CL         11.7870    9.3818    1.9765 Cl     28  UNL28      -0.0870
    164 C          13.2918    8.6307    1.4191 C.3    28  UNL28       0.1805
    165 H          13.2919    8.6308    0.3261 H      28  UNL28       0.0806
    166 CL         13.4375    7.2957    5.9731 Cl     28  UNL28      -0.0870
    167 CL         14.2213    9.8974    7.0224 Cl     28  UNL28      -0.0870
    168 CL         12.4809    9.7307    4.6926 Cl     28  UNL28      -0.0870
    169 C          12.9334    8.9746    6.2297 C.3    28  UNL28       0.1805
    170 H          12.0577    8.9745    6.8839 H      28  UNL28       0.0806
    171 CL         12.3050   10.5676    9.1295 Cl     28  UNL28      -0.0870
    172 CL         10.9953    8.0609    9.8260 Cl     28  UNL28      -0.0870
    173 CL         13.9034    8.2216    9.7815 Cl     28  UNL28      -0.0870
    174 C          12.4011    9.0993   10.1161 C.3    28  UNL28       0.1805
    175 H          12.4011    9.3920   11.1692 H      28  UNL28       0.0806
    176 CL         10.6642   13.8160    0.8567 Cl     28  UNL28      -0.0870
    177 CL         12.3638   15.0059   -1.1877 Cl     28  UNL28      -0.0870
    178 CL         10.7719   12.6470   -1.8090 Cl     28  UNL28      -0.0870
    179 C          10.8447   14.1501   -0.8738 C.3    28  UNL28       0.1805
    180 H          10.0173   14.7913   -1.1883 H      28  UNL28       0.0806
    181 CL         21.0005   -0.8128    0.6797 Cl     28  UNL28      -0.0870
    182 CL         19.6999   -3.4191    0.6797 Cl     28  UNL28      -0.0870
    183 CL         18.0931   -0.9895    0.6796 Cl     28  UNL28      -0.0870
    184 C          19.5979   -1.7406    0.1222 C.3    28  UNL28       0.1805
    185 H          19.5980   -1.7405   -0.9708 H      28  UNL28       0.0806
    186 CL         16.6842    0.2163    3.6753 Cl     28  UNL28      -0.0870
    187 CL         18.9532   -0.2915    5.4297 Cl     28  UNL28      -0.0870
    188 CL         17.4708   -2.5215    4.2834 Cl     28  UNL28      -0.0870
    189 C          18.0438   -0.8655    4.0218 C.3    28  UNL28       0.1805
    190 H          18.7123   -0.8654    3.1571 H      28  UNL28       0.0806
    191 CL         15.6854   -0.2993   10.4617 Cl     28  UNL28      -0.0870
    192 CL         18.5535   -0.8071   10.4617 Cl     28  UNL28      -0.0870
    193 CL         16.6796   -3.0372   10.4616 Cl     28  UNL28      -0.0870
    194 C          16.9729   -1.3811    9.9042 C.3    28  UNL28       0.1805
    195 H          16.9728   -1.3810    8.8112 H      28  UNL28       0.0806
    196 CL         20.6916    2.4133    0.7612 Cl     28  UNL28      -0.0870
    197 CL         20.0427    2.7157    3.5846 Cl     28  UNL28      -0.0870
    198 CL         17.9412    2.0944    1.6656 Cl     28  UNL28      -0.0870
    199 C          19.6477    1.8632    2.0826 C.3    28  UNL28       0.1805
    200 H          19.8223    0.7953    2.2370 H      28  UNL28       0.0806
    201 CL         17.6267    3.6586    4.8010 Cl     28  UNL28      -0.0870
    202 CL         16.3170    2.1016    6.8854 Cl     28  UNL28      -0.0870
    203 CL         19.2251    2.2014    6.7519 Cl     28  UNL28      -0.0870
    204 C          17.7228    3.1005    6.4797 C.3    28  UNL28       0.1805
    205 H          17.7228    3.9762    7.1337 H      28  UNL28       0.0806
    206 CL         19.5460    4.2917    8.5902 Cl     28  UNL28      -0.0870
    207 CL         17.5768    4.3141   10.7363 Cl     28  UNL28      -0.0870
    208 CL         18.2263    1.8186    9.3816 Cl     28  UNL28      -0.0870
    209 C          18.8537    3.3782    9.9411 C.3    28  UNL28       0.1805
    210 H          19.6459    3.1887   10.6699 H      28  UNL28       0.0806
    211 CL         18.3373    7.8421    1.9316 Cl     28  UNL28      -0.0870
    212 CL         19.9219    6.1091    3.6549 Cl     28  UNL28      -0.0870
    213 CL         18.4903    4.9861    1.3803 Cl     28  UNL28      -0.0870
    214 C          19.3625    6.3987    1.9991 C.3    28  UNL28       0.1805
    215 H          20.2367    6.5680    1.3652 H      28  UNL28       0.0806
    216 CL         16.4436   10.0005    4.7273 Cl     28  UNL28      -0.0870
    217 CL         16.6825    8.4435    7.1773 Cl     28  UNL28      -0.0870
    218 CL         18.9014    8.5433    5.2929 Cl     28  UNL28      -0.0870
    219 C          17.5465    9.4424    5.9965 C.3    28  UNL28       0.1805
    220 H          17.9465   10.3181    6.5139 H      28  UNL28       0.0806
    221 CL         17.7472    7.5088   10.6745 Cl     28  UNL28      -0.0870
    222 CL         20.4134    7.1583    9.5552 Cl     28  UNL28      -0.0870
    223 CL         18.9772    9.6584    9.1413 Cl     28  UNL28      -0.0870
    224 C          19.2693    8.3141   10.2579 C.3    28  UNL28       0.1805
    225 H          19.7071    8.7174   11.1746 H      28  UNL28       0.0806
    226 CL         17.9655   10.2333    0.1840 Cl     28  UNL28      -0.0870
    227 CL         19.6453   12.4911    0.9355 Cl     28  UNL28      -0.0870
    228 CL         19.4056   11.7221   -1.8638 Cl     28  UNL28      -0.0870
    229 C          18.5698   11.8253   -0.3049 C.3    28  UNL28       0.1805
    230 H          17.7155   12.4979   -0.4166 H      28  UNL28       0.0806
    231 CL         18.8742   12.4364    8.3679 Cl     28  UNL28      -0.0870
    232 CL         16.1221   11.4825    8.3679 Cl     28  UNL28      -0.0870
    233 CL         16.6722   14.3430    8.3678 Cl     28  UNL28      -0.0870
    234 C          17.2228   12.7539    7.8104 C.3    28  UNL28       0.1805
    235 H          17.2229   12.7539    6.7174 H      28  UNL28       0.0806
    236 CL         22.2997   -0.6156    7.2511 Cl     28  UNL28      -0.0870
    237 CL         23.0835   -2.3765    5.0673 Cl     28  UNL28      -0.0870
    238 CL         21.3430   -3.3659    7.1831 Cl     28  UNL28      -0.0870
    239 C          21.7955   -1.9567    6.2091 C.3    28  UNL28       0.1805
    240 H          20.9199   -1.6380    5.6379 H      28  UNL28       0.0806
    241 CL         22.7752   -0.6706   11.1726 Cl     28  UNL28      -0.0870
    242 CL         24.8808    0.3156    9.4182 Cl     28  UNL28      -0.0870
    243 CL         25.0720   -2.3554   10.5644 Cl     28  UNL28      -0.0870
    244 C          23.9729   -1.1119    9.9440 C.3    28  UNL28       0.1805
    245 H          23.4439   -1.5209    9.0794 H      28  UNL28       0.0806
    246 CL         23.3128    2.2194    2.3106 Cl     28  UNL28      -0.0870
    247 CL         23.1395    4.8211    1.0124 Cl     28  UNL28      -0.0870
    248 CL         23.5245    4.6544    3.8949 Cl     28  UNL28      -0.0870
    249 C          23.8782    3.8983    2.3320 C.3    28  UNL28       0.1805
    250 H          24.9615    3.8982    2.1874 H      28  UNL28       0.0806
    251 CL         25.7368    2.6385    5.1205 Cl     28  UNL28      -0.0870
    252 CL         24.7079    0.0322    5.9160 Cl     28  UNL28      -0.0870
    253 CL         23.4367    2.4618    6.8988 Cl     28  UNL28      -0.0870
    254 C          24.2862    1.7107    5.5374 C.3    28  UNL28       0.1805
    255 H          23.6177    1.7108    4.6727 H      28  UNL28       0.0806
    256 CL         22.4046    2.2506    9.8975 Cl     28  UNL28      -0.0870
    257 CL         23.1884    4.8523    8.8482 Cl     28  UNL28      -0.0870
    258 CL         21.4481    4.6856   11.1781 Cl     28  UNL28      -0.0870
    259 C          22.7937    3.9295   10.3081 C.3    28  UNL28       0.1805
    260 H          23.6694    3.9294   10.9622 H      28  UNL28       0.0806
    261 CL         24.6025    9.9393    2.0044 Cl     28  UNL28      -0.0870
    262 CL         24.8348    7.5126    3.5986 Cl     28  UNL28      -0.0870
    263 CL         22.3880    8.0503    2.1124 Cl     28  UNL28      -0.0870
    264 C          24.1505    8.2309    2.1308 C.3    28  UNL28       0.1805
    265 H          24.5595    7.7021    1.2661 H      28  UNL28       0.0806
    266 CL         21.6008   10.5095    5.9457 Cl     28  UNL28      -0.0870
    267 CL         24.4690   10.0017    5.9457 Cl     28  UNL28      -0.0870
    268 CL         22.5951    7.7716    5.9456 Cl     28  UNL28      -0.0870
    269 C          22.8884    9.4277    5.3882 C.3    28  UNL28       0.1805
    270 H          22.8883    9.4278    4.2952 H      28  UNL28       0.0806
    271 CL         23.2796    6.9220   11.1676 Cl     28  UNL28      -0.0870
    272 CL         24.0634    8.3383    8.7461 Cl     28  UNL28      -0.0870
    273 CL         22.3231    9.6316   10.6913 Cl     28  UNL28      -0.0870
    274 C          23.6687    8.5013   10.4655 C.3    28  UNL28       0.1805
    275 H          24.5444    8.9013   10.9830 H      28  UNL28       0.0806
    276 CL         22.5383   14.9736    2.0039 Cl     28  UNL28      -0.0870
    277 CL         25.4065   14.5720    2.3144 Cl     28  UNL28      -0.0870
    278 CL         23.5326   12.8077    3.6784 Cl     28  UNL28      -0.0870
    279 C          23.8259   13.7768    2.2245 C.3    28  UNL28       0.1805
    280 H          23.8258   13.1083    1.3598 H      28  UNL28       0.0806
    281 CL         29.9251   -0.0941   11.1648 Cl     28  UNL28      -0.0870
    282 CL         28.6246   -2.7004   11.1648 Cl     28  UNL28      -0.0870
    283 CL         27.0177   -0.2708   11.1647 Cl     28  UNL28      -0.0870
    284 C          28.5225   -1.0218   10.6073 C.3    28  UNL28       0.1805
    285 H          28.5226   -1.0218    9.5143 H      28  UNL28       0.0806
    286 CL         29.8939    4.6385    8.7898 Cl     28  UNL28      -0.0870
    287 CL         28.5933    2.0322    8.7898 Cl     28  UNL28      -0.0870
    288 CL         26.9865    4.4618    8.7897 Cl     28  UNL28      -0.0870
    289 C          28.4913    3.7107    8.2323 C.3    28  UNL28       0.1805
    290 H          28.4914    3.7108    7.1393 H      28  UNL28       0.0806
    291 CL         27.4182    7.9016    5.0287 Cl     28  UNL28      -0.0870
    292 CL         27.7315    9.8458    7.1749 Cl     28  UNL28      -0.0870
    293 CL         29.5799    7.6049    6.9582 Cl     28  UNL28      -0.0870
    294 C          28.5760    8.7570    6.0614 C.3    28  UNL28       0.1805
    295 H          29.2288    9.3571    5.4223 H      28  UNL28       0.0806
    296 CL         29.9251    9.0272   11.1648 Cl     28  UNL28      -0.0870
    297 CL         28.6246    6.4209   11.1648 Cl     28  UNL28      -0.0870
    298 CL         27.0177    8.8505   11.1647 Cl     28  UNL28      -0.0870
    299 C          28.5225    8.0995   10.6073 C.3    28  UNL28       0.1805
    300 H          28.5226    8.0995    9.5143 H      28  UNL28       0.0806
@<TRIPOS>BOND
     1     1     4    1
     2     2     4    1
     3     3     4    1
     4     4     5    1
     5     6     9    1
     6     7     9    1
     7     8     9    1
     8     9    10    1
     9    11    14    1
    10    12    14    1
    11    13    14    1
    12    14    15    1
    13    16    19    1
    14    17    19    1
    15    18    19    1
    16    19    20    1
    17    21    24    1
    18    22    24    1
    19    23    24    1
    20    24    25    1
    21    26    29    1
    22    27    29    1
    23    28    29    1
    24    29    30    1
    25    31    34    1
    26    32    34    1
    27    33    34    1
    28    34    35    1
    29    36    39    1
    30    37    39    1
    31    38    39    1
    32    39    40    1
    33    41    44    1
    34    42    44    1
    35    43    44    1
    36    44    45    1
    37    46    49    1
    38    47    49    1
    39    48    49    1
    40    49    50    1
    41    51    54    1
    42    52    54    1
    43    53    54    1
    44    54    55    1
    45    56    59    1
    46    57    59    1
    47    58    59    1
    48    59    60    1
    49    61    64    1
    50    62    64    1
    51    63    64    1
    52    64    65    1
    53    66    69    1
    54    67    69    1
    55    68    69    1
    56    69    70    1
    57    71    74    1
    58    72    74    1
    59    73    74    1
    60    74    75    1
    61    76    79    1
    62    77    79    1
    63    78    79    1
    64    79    80    1
    65    81    84    1
    66    82    84    1
    67    83    84    1
    68    84    85    1
    69    86    89    1
    70    87    89    1
    71    88    89    1
    72    89    90    1
    73    91    94    1
    74    92    94    1
    75    93    94    1
    76    94    95    1
    77    96    99    1
    78    97    99    1
    79    98    99    1
    80    99   100    1
    81   101   104    1
    82   102   104    1
    83   103   104    1
    84   104   105    1
    85   106   109    1
    86   107   109    1
    87   108   109    1
    88   109   110    1
    89   111   114    1
    90   112   114    1
    91   113   114    1
    92   114   115    1
    93   116   119    1
    94   117   119    1
    95   118   119    1
    96   119   120    1
    97   121   124    1
    98   122   124    1
    99   123   124    1
   100   124   125    1
   101   126   129    1
   102   127   129    1
   103   128   129    1
   104   129   130    1
   105   131   134    1
   106   132   134    1
   107   133   134    1
   108   134   135    1
   109   136   139    1
   110   137   139    1
   111   138   139    1
   112   139   140    1
   113   141   144    1
   114   142   144    1
   115   143   144    1
   116   144   145    1
   117   146   149    1
   118   147   149    1
   119   148   149    1
   120   149   150    1
   121   151   154    1
   122   152   154    1
   123   153   154    1
   124   154   155    1
   125   156   159    1
   126   157   159    1
   127   158   159    1
   128   159   160    1
   129   161   164    1
   130   162   164    1
   131   163   164    1
   132   164   165    1
   133   166   169    1
   134   167   169    1
   135   168   169    1
   136   169   170    1
   137   171   174    1
   138   172   174    1
   139   173   174    1
   140   174   175    1
   141   176   179    1
   142   177   179    1
   143   178   179    1
   144   179   180    1
   145   181   184    1
   146   182   184    1
   147   183   184    1
   148   184   185    1
   149   186   189    1
   150   187   189    1
   151   188   189    1
   152   189   190    1
   153   191   194    1
   154   192   194    1
   155   193   194    1
   156   194   195    1
   157   196   199    1
   158   197   199    1
   159   198   199    1
   160   199   200    1
   161   201   204    1
   162   202   204    1
   163   203   204    1
   164   204   205    1
   165   206   209    1
   166   207   209    1
   167   208   209    1
   168   209   210    1
   169   211   214    1
   170   212   214    1
   171   213   214    1
   172   214   215    1
   173   216   219    1
   174   217   219    1
   175   218   219    1
   176   219   220    1
   177   221   224    1
   178   222   224    1
   179   223   224    1
   180   224   225    1
   181   226   229    1
   182   227   229    1
   183   228   229    1
   184   229   230    1
   185   231   234    1
   186   232   234    1
   187   233   234    1
   188   234   235    1
   189   236   239    1
   190   237   239    1
   191   238   239    1
   192   239   240    1
   193   241   244    1
   194   242   244    1
   195   243   244    1
   196   244   245    1
   197   246   249    1
   198   247   249    1
   199   248   249    1
   200   249   250    1
   201   251   254    1
   202   252   254    1
   203   253   254    1
   204   254   255    1
   205   256   259    1
   206   257   259    1
   207   258   259    1
   208   259   260    1
   209   261   264    1
   210   262   264    1
   211   263   264    1
   212   264   265    1
   213   266   269    1
   214   267   269    1
   215   268   269    1
   216   269   270    1
   217   271   274    1
   218   272   274    1
   219   273   274    1
   220   274   275    1
   221   276   279    1
   222   277   279    1
   223   278   279    1
   224   279   280    1
   225   281   284    1
   226   282   284    1
   227   283   284    1
   228   284   285    1
   229   286   289    1
   230   287   289    1
   231   288   289    1
   232   289   290    1
   233   291   294    1
   234   292   294    1
   235   293   294    1
   236   294   295    1
   237   296   299    1
   238   297   299    1
   239   298   299    1
   240   299   300    1
