@<TRIPOS>MOLECULE
*****
 80 64 0 0 0
SMALL
GASTEIGER

@<TRIPOS>ATOM
      1 CL         -1.8578   -0.7618   23.3418 Cl      1  UNL1       -0.0870
      2 CL          1.0549   -0.7567   23.3418 Cl      1  UNL1       -0.0870
      3 CL         -0.3972   -3.2818   23.3417 Cl      1  UNL1       -0.0870
      4 C          -0.4000   -1.6000   22.7843 C.3     1  UNL1        0.1805
      5 H          -0.4001   -1.5999   21.6913 H       1  UNL1        0.0806
      6 CL          1.4026    3.3419   -0.5139 Cl      2  UNL2       -0.0870
      7 CL          0.1020    1.6209   -2.4712 Cl      2  UNL2       -0.0870
      8 CL         -1.5048    3.2253   -0.6467 Cl      2  UNL2       -0.0870
      9 C           0.0000    3.1480   -1.5788 C.3     2  UNL2        0.1805
     10 H           0.0001    3.9688   -2.3005 H       2  UNL2        0.0806
     11 CL          1.4026    3.1419    2.7864 Cl      3  UNL3       -0.0870
     12 CL          0.1020    1.4209    0.8291 Cl      3  UNL3       -0.0870
     13 CL         -1.5048    3.0253    2.6536 Cl      3  UNL3       -0.0870
     14 C           0.0000    2.9480    1.7215 C.3     3  UNL3        0.1805
     15 H           0.0001    3.7688    0.9998 H       3  UNL3        0.0806
     16 CL          1.4026    2.9419    5.6867 Cl      4  UNL4       -0.0870
     17 CL          0.1020    1.2209    3.7294 Cl      4  UNL4       -0.0870
     18 CL         -1.5048    2.8253    5.5539 Cl      4  UNL4       -0.0870
     19 C           0.0000    2.7480    4.6218 C.3     4  UNL4        0.1805
     20 H           0.0001    3.5688    3.9001 H       4  UNL4        0.0806
     21 CL          1.4026    2.9419    8.5870 Cl      5  UNL5       -0.0870
     22 CL          0.1020    1.2209    6.6297 Cl      5  UNL5       -0.0870
     23 CL         -1.5048    2.8253    8.4542 Cl      5  UNL5       -0.0870
     24 C           0.0000    2.7480    7.5221 C.3     5  UNL5        0.1805
     25 H           0.0001    3.5688    6.8004 H       5  UNL5        0.0806
     26 CL          1.4026    2.9419   11.2873 Cl      6  UNL6       -0.0870
     27 CL          0.1020    1.2209    9.3300 Cl      6  UNL6       -0.0870
     28 CL         -1.5048    2.8253   11.1545 Cl      6  UNL6       -0.0870
     29 C           0.0000    2.7480   10.2224 C.3     6  UNL6        0.1805
     30 H           0.0001    3.5688    9.5007 H       6  UNL6        0.0806
     31 CL          1.4026    3.1419   13.9876 Cl      7  UNL7       -0.0870
     32 CL          0.1020    1.4209   12.0303 Cl      7  UNL7       -0.0870
     33 CL         -1.5048    3.0253   13.8548 Cl      7  UNL7       -0.0870
     34 C           0.0000    2.9480   12.9227 C.3     7  UNL7        0.1805
     35 H           0.0001    3.7688   12.2010 H       7  UNL7        0.0806
     36 CL          1.4026    2.9419   16.6879 Cl      8  UNL8       -0.0870
     37 CL          0.1020    1.2209   14.7306 Cl      8  UNL8       -0.0870
     38 CL         -1.5048    2.8253   16.5551 Cl      8  UNL8       -0.0870
     39 C           0.0000    2.7480   15.6230 C.3     8  UNL8        0.1805
     40 H           0.0001    3.5688   14.9013 H       8  UNL8        0.0806
     41 CL          1.2026    2.9419   19.7882 Cl      9  UNL9       -0.0870
     42 CL         -0.0980    1.2209   17.8309 Cl      9  UNL9       -0.0870
     43 CL         -1.7048    2.8253   19.6554 Cl      9  UNL9       -0.0870
     44 C          -0.2000    2.7480   18.7233 C.3     9  UNL9        0.1805
     45 H          -0.1999    3.5688   18.0016 H       9  UNL9        0.0806
     46 CL          1.0026    2.7419   23.4885 Cl     10  UNL10      -0.0870
     47 CL         -0.2980    1.0209   21.5312 Cl     10  UNL10      -0.0870
     48 CL         -1.9048    2.6253   23.3557 Cl     10  UNL10      -0.0870
     49 C          -0.4000    2.5480   22.4236 C.3    10  UNL10       0.1805
     50 H          -0.3999    3.3688   21.7019 H      10  UNL10       0.0806
     51 CL         -1.0810    8.5016   -0.4979 Cl     11  UNL11      -0.0870
     52 CL         -2.6659    6.0877   -0.8792 Cl     11  UNL11      -0.0870
     53 CL         -3.1426    8.4227   -2.5540 Cl     11  UNL11      -0.0870
     54 C          -1.9222    7.4830   -1.6784 C.3    11  UNL11       0.1805
     55 H          -1.1883    7.1152   -2.4001 H      11  UNL11       0.0806
     56 CL         -0.1784    8.6035    2.1400 Cl     12  UNL12      -0.0870
     57 CL          1.2454    6.0625    2.1400 Cl     12  UNL12      -0.0870
     58 CL         -1.6672    6.1000    2.1399 Cl     12  UNL12      -0.0870
     59 C          -0.1999    6.9220    1.5825 C.3    12  UNL12       0.1805
     60 H          -0.1999    6.9221    0.4895 H      12  UNL12       0.0806
     61 CL          1.2608    6.0172    5.6403 Cl     13  UNL13      -0.0870
     62 CL         -1.4605    7.0558    5.6403 Cl     13  UNL13      -0.0870
     63 CL          0.7997    8.8932    5.6402 Cl     13  UNL13      -0.0870
     64 C           0.1999    7.3220    5.0828 C.3    13  UNL13       0.1805
     65 H           0.2000    7.3219    3.9898 H      13  UNL13       0.0806
     66 CL         -1.4875    9.0038   12.6409 Cl     14  UNL14      -0.0870
     67 CL          1.3807    8.4961   12.6409 Cl     14  UNL14      -0.0870
     68 CL         -0.4933    6.2660   12.6408 Cl     14  UNL14      -0.0870
     69 C          -0.2000    7.9221   12.0834 C.3    14  UNL14       0.1805
     70 H          -0.2000    7.9221   10.9904 H      14  UNL14       0.0806
     71 CL         -0.6602    9.0322   15.9412 Cl     15  UNL15      -0.0870
     72 CL         -0.4621    6.1262   15.9412 Cl     15  UNL15      -0.0870
     73 CL         -3.0779    7.4078   15.9411 Cl     15  UNL15      -0.0870
     74 C          -1.4000    7.5220   15.3837 C.3    15  UNL15       0.1805
     75 H          -1.3999    7.5221   14.2907 H      15  UNL15       0.0806
     76 CL         -1.4357    7.0458   18.4791 Cl     16  UNL16      -0.0870
     77 CL          0.7100    8.9784   18.8604 Cl     16  UNL16      -0.0870
     78 CL          0.5785    6.5987   20.5351 Cl     16  UNL16      -0.0870
     79 C           0.2654    7.2646   18.9233 C.3    16  UNL16       0.1805
     80 H           0.8817    6.7226   18.2016 H      16  UNL16       0.0806
@<TRIPOS>BOND
     1     1     4    1
     2     2     4    1
     3     3     4    1
     4     4     5    1
     5     6     9    1
     6     7     9    1
     7     8     9    1
     8     9    10    1
     9    11    14    1
    10    12    14    1
    11    13    14    1
    12    14    15    1
    13    16    19    1
    14    17    19    1
    15    18    19    1
    16    19    20    1
    17    21    24    1
    18    22    24    1
    19    23    24    1
    20    24    25    1
    21    26    29    1
    22    27    29    1
    23    28    29    1
    24    29    30    1
    25    31    34    1
    26    32    34    1
    27    33    34    1
    28    34    35    1
    29    36    39    1
    30    37    39    1
    31    38    39    1
    32    39    40    1
    33    41    44    1
    34    42    44    1
    35    43    44    1
    36    44    45    1
    37    46    49    1
    38    47    49    1
    39    48    49    1
    40    49    50    1
    41    51    54    1
    42    52    54    1
    43    53    54    1
    44    54    55    1
    45    56    59    1
    46    57    59    1
    47    58    59    1
    48    59    60    1
    49    61    64    1
    50    62    64    1
    51    63    64    1
    52    64    65    1
    53    66    69    1
    54    67    69    1
    55    68    69    1
    56    69    70    1
    57    71    74    1
    58    72    74    1
    59    73    74    1
    60    74    75    1
    61    76    79    1
    62    77    79    1
    63    78    79    1
    64    79    80    1
