@<TRIPOS>MOLECULE
*****
 12088 9066 0 0 0
SMALL
GASTEIGER

@<TRIPOS>ATOM
      1 N          -0.0857    0.6151   -1.2630 N.3     1  UNL1       -0.3437
      2 H          -0.5274    0.9057   -0.3919 H       1  UNL1        0.1146
      3 H           0.6399    1.3047   -1.4537 H       1  UNL1        0.1146
      4 H           0.4018   -0.2550   -1.0541 H       1  UNL1        0.1146
      5 N          -0.1072    0.4424    1.2840 N.3     2  UNL2       -0.3437
      6 H          -0.0488    1.1007    2.0596 H       2  UNL2        0.1146
      7 H          -0.2321    1.0071    0.4450 H       2  UNL2        0.1146
      8 H           0.8168    0.0204    1.2035 H       2  UNL2        0.1146
      9 N          -0.0857    0.8372    3.6477 N.3     3  UNL3       -0.3437
     10 H          -0.5274   -0.0346    3.3592 H       3  UNL3        0.1146
     11 H           0.6399    0.5773    4.3143 H       3  UNL3        0.1146
     12 H           0.4018    1.1906    2.8256 H       3  UNL3        0.1146
     13 N          -0.0857    0.8372    5.9365 N.3     4  UNL4       -0.3437
     14 H          -0.5274   -0.0346    5.6479 H       4  UNL4        0.1146
     15 H           0.6399    0.5773    6.6031 H       4  UNL4        0.1146
     16 H           0.4018    1.1906    5.1144 H       4  UNL4        0.1146
     17 N          -0.0857    0.8372    8.2252 N.3     5  UNL5       -0.3437
     18 H          -0.5274   -0.0346    7.9367 H       5  UNL5        0.1146
     19 H           0.6399    0.5773    8.8918 H       5  UNL5        0.1146
     20 H           0.4018    1.1906    7.4031 H       5  UNL5        0.1146
     21 N          -0.0857    0.4810   12.5580 N.3     6  UNL6       -0.3437
     22 H          -0.5274    1.0050   11.8039 H       6  UNL6        0.1146
     23 H           0.6399   -0.0845   12.1196 H       6  UNL6        0.1146
     24 H           0.4018    1.1691   13.1301 H       6  UNL6        0.1146
     25 N           0.0445    0.6151   14.9792 N.3     7  UNL7       -0.3437
     26 H           1.0067    0.9057   14.8117 H       7  UNL7        0.1146
     27 H          -0.5425    1.3047   14.5120 H       7  UNL7        0.1146
     28 H          -0.0799   -0.2550   14.4636 H       7  UNL7        0.1146
     29 N          -0.0857    0.6151   16.7580 N.3     8  UNL8       -0.3437
     30 H          -0.5274    0.9057   17.6291 H       8  UNL8        0.1146
     31 H           0.6399    1.3047   16.5673 H       8  UNL8        0.1146
     32 H           0.4018   -0.2550   16.9669 H       8  UNL8        0.1146
     33 N          -0.0857    0.4810   19.4241 N.3     9  UNL9       -0.3437
     34 H          -0.5274    1.0050   18.6700 H       9  UNL9        0.1146
     35 H           0.6399   -0.0845   18.9858 H       9  UNL9        0.1146
     36 H           0.4018    1.1691   19.9962 H       9  UNL9        0.1146
     37 N          -0.1221    0.5223   21.4152 N.3    10  UNL10      -0.3437
     38 H           0.0056    0.1391   22.3508 H      10  UNL10       0.1146
     39 H          -0.2172    1.5298   21.5350 H      10  UNL10       0.1146
     40 H           0.7625    0.3794   20.9300 H      10  UNL10       0.1146
     41 N          -0.1221    0.5223   23.7040 N.3    11  UNL11      -0.3437
     42 H           0.0056    0.1391   24.6395 H      11  UNL11       0.1146
     43 H          -0.2172    1.5298   23.8237 H      11  UNL11       0.1146
     44 H           0.7625    0.3794   23.2187 H      11  UNL11       0.1146
     45 N          -0.0857    0.8372   26.2462 N.3    12  UNL12      -0.3437
     46 H          -0.5274   -0.0346   25.9577 H      12  UNL12       0.1146
     47 H           0.6399    0.5773   26.9128 H      12  UNL12       0.1146
     48 H           0.4018    1.1906   25.4241 H      12  UNL12       0.1146
     49 N          -0.1695    0.6321   29.3203 N.3    13  UNL13      -0.3437
     50 H          -0.0317    0.0386   30.1370 H      13  UNL13       0.1146
     51 H           0.1097    1.5701   29.6044 H      13  UNL13       0.1146
     52 H           0.5203    0.3298   28.6338 H      13  UNL13       0.1146
     53 N          -0.0857    3.2810    1.0703 N.3    14  UNL14      -0.3437
     54 H          -0.5274    2.4092    0.7818 H      14  UNL14       0.1146
     55 H           0.6399    3.0211    1.7369 H      14  UNL14       0.1146
     56 H           0.4018    3.6344    0.2482 H      14  UNL14       0.1146
     57 N          -0.0857    3.2810    3.3590 N.3    15  UNL15      -0.3437
     58 H          -0.5274    2.4092    3.0705 H      15  UNL15       0.1146
     59 H           0.6399    3.0211    4.0256 H      15  UNL15       0.1146
     60 H           0.4018    3.6344    2.5369 H      15  UNL15       0.1146
     61 N          -0.0857    3.2810    5.6477 N.3    16  UNL16      -0.3437
     62 H          -0.5274    2.4092    5.3592 H      16  UNL16       0.1146
     63 H           0.6399    3.0211    6.3143 H      16  UNL16       0.1146
     64 H           0.4018    3.6344    4.8256 H      16  UNL16       0.1146
     65 N          -0.0857    3.2810    7.9365 N.3    17  UNL17      -0.3437
     66 H          -0.5274    2.4092    7.6479 H      17  UNL17       0.1146
     67 H           0.6399    3.0211    8.6031 H      17  UNL17       0.1146
     68 H           0.4018    3.6344    7.1144 H      17  UNL17       0.1146
     69 N          -0.0857    3.0589    9.8918 N.3    18  UNL18      -0.3437
     70 H          -0.5274    3.3495   10.7629 H      18  UNL18       0.1146
     71 H           0.6399    3.7485    9.7011 H      18  UNL18       0.1146
     72 H           0.4018    2.1888   10.1007 H      18  UNL18       0.1146
     73 N          -0.0857    3.0589   12.1806 N.3    19  UNL19      -0.3437
     74 H          -0.5274    3.3495   13.0517 H      19  UNL19       0.1146
     75 H           0.6399    3.7485   11.9899 H      19  UNL19       0.1146
     76 H           0.4018    2.1888   12.3895 H      19  UNL19       0.1146
     77 N          -0.0857    2.9248   14.8467 N.3    20  UNL20      -0.3437
     78 H          -0.5274    3.4488   14.0926 H      20  UNL20       0.1146
     79 H           0.6399    2.3593   14.4084 H      20  UNL20       0.1146
     80 H           0.4018    3.6129   15.4188 H      20  UNL20       0.1146
     81 N           0.0445    3.0589   17.2679 N.3    21  UNL21      -0.3437
     82 H           1.0067    3.3495   17.1004 H      21  UNL21       0.1146
     83 H          -0.5425    3.7485   16.8007 H      21  UNL21       0.1146
     84 H          -0.0799    2.1888   16.7523 H      21  UNL21       0.1146
     85 N          -0.0857    3.0589   19.0467 N.3    22  UNL22      -0.3437
     86 H          -0.5274    3.3495   19.9178 H      22  UNL22       0.1146
     87 H           0.6399    3.7485   18.8560 H      22  UNL22       0.1146
     88 H           0.4018    2.1888   19.2556 H      22  UNL22       0.1146
     89 N          -0.0857    3.0589   21.3354 N.3    23  UNL23      -0.3437
     90 H          -0.5274    3.3495   22.2065 H      23  UNL23       0.1146
     91 H           0.6399    3.7485   21.1447 H      23  UNL23       0.1146
     92 H           0.4018    2.1888   21.5443 H      23  UNL23       0.1146
     93 N           0.1209    3.2743   23.6187 N.3    24  UNL24      -0.3437
     94 H          -0.5005    3.5972   24.3589 H      24  UNL24       0.1146
     95 H           1.0271    3.1220   24.0592 H      24  UNL24       0.1146
     96 H          -0.2187    2.3523   23.3490 H      24  UNL24       0.1146
     97 N          -0.1221    2.9661   25.9927 N.3    25  UNL25      -0.3437
     98 H           0.0056    2.5829   26.9282 H      25  UNL25       0.1146
     99 H          -0.2172    3.9736   26.1124 H      25  UNL25       0.1146
    100 H           0.7625    2.8232   25.5074 H      25  UNL25       0.1146
    101 N          -0.1695    3.0759   29.3203 N.3    26  UNL26      -0.3437
    102 H          -0.0317    2.4824   30.1370 H      26  UNL26       0.1146
    103 H           0.1097    4.0139   29.6044 H      26  UNL26       0.1146
    104 H           0.5203    2.7736   28.6338 H      26  UNL26       0.1146
    105 N          -0.0857    5.5027    0.7370 N.3    27  UNL27      -0.3437
    106 H          -0.5274    5.7933    1.6081 H      27  UNL27       0.1146
    107 H           0.6399    6.1923    0.5463 H      27  UNL27       0.1146
    108 H           0.4018    4.6326    0.9459 H      27  UNL27       0.1146
    109 N          -0.0857    5.5027    3.0257 N.3    28  UNL28      -0.3437
    110 H          -0.5274    5.7933    3.8968 H      28  UNL28       0.1146
    111 H           0.6399    6.1923    2.8350 H      28  UNL28       0.1146
    112 H           0.4018    4.6326    3.2346 H      28  UNL28       0.1146
    113 N          -0.0857    5.5027    5.3144 N.3    29  UNL29      -0.3437
    114 H          -0.5274    5.7933    6.1855 H      29  UNL29       0.1146
    115 H           0.6399    6.1923    5.1237 H      29  UNL29       0.1146
    116 H           0.4018    4.6326    5.5233 H      29  UNL29       0.1146
    117 N          -0.0857    5.5027    7.6031 N.3    30  UNL30      -0.3437
    118 H          -0.5274    5.7933    8.4742 H      30  UNL30       0.1146
    119 H           0.6399    6.1923    7.4124 H      30  UNL30       0.1146
    120 H           0.4018    4.6326    7.8120 H      30  UNL30       0.1146
    121 N          -0.0857    5.3686   10.2693 N.3    31  UNL31      -0.3437
    122 H          -0.5274    5.8926    9.5151 H      31  UNL31       0.1146
    123 H           0.6399    4.8031    9.8309 H      31  UNL31       0.1146
    124 H           0.4018    6.0567   10.8413 H      31  UNL31       0.1146
    125 N           0.0445    5.5027   12.6904 N.3    32  UNL32      -0.3437
    126 H           1.0067    5.7933   12.5230 H      32  UNL32       0.1146
    127 H          -0.5425    6.1923   12.2232 H      32  UNL32       0.1146
    128 H          -0.0799    4.6326   12.1749 H      32  UNL32       0.1146
    129 N          -0.0857    5.5027   14.4693 N.3    33  UNL33      -0.3437
    130 H          -0.5274    5.7933   15.3404 H      33  UNL33       0.1146
    131 H           0.6399    6.1923   14.2786 H      33  UNL33       0.1146
    132 H           0.4018    4.6326   14.6782 H      33  UNL33       0.1146
    133 N          -0.0857    5.5027   16.7580 N.3    34  UNL34      -0.3437
    134 H          -0.5274    5.7933   17.6291 H      34  UNL34       0.1146
    135 H           0.6399    6.1923   16.5673 H      34  UNL34       0.1146
    136 H           0.4018    4.6326   16.9669 H      34  UNL34       0.1146
    137 N          -0.0857    5.3686   19.4241 N.3    35  UNL35      -0.3437
    138 H          -0.5274    5.8926   18.6700 H      35  UNL35       0.1146
    139 H           0.6399    4.8031   18.9858 H      35  UNL35       0.1146
    140 H           0.4018    6.0567   19.9962 H      35  UNL35       0.1146
    141 N          -0.0857    5.7248   21.6687 N.3    36  UNL36      -0.3437
    142 H          -0.5274    4.8530   21.3802 H      36  UNL36       0.1146
    143 H           0.6399    5.4649   22.3353 H      36  UNL36       0.1146
    144 H           0.4018    6.0782   20.8466 H      36  UNL36       0.1146
    145 N          -0.0857    5.5027   23.6241 N.3    37  UNL37      -0.3437
    146 H          -0.5274    5.7933   24.4952 H      37  UNL37       0.1146
    147 H           0.6399    6.1923   23.4334 H      37  UNL37       0.1146
    148 H           0.4018    4.6326   23.8330 H      37  UNL37       0.1146
    149 N          -0.0857    5.5027   25.9128 N.3    38  UNL38      -0.3437
    150 H          -0.5274    5.7933   26.7840 H      38  UNL38       0.1146
    151 H           0.6399    6.1923   25.7221 H      38  UNL38       0.1146
    152 H           0.4018    4.6326   26.1217 H      38  UNL38       0.1146
    153 N          -0.0857    5.5027   28.2016 N.3    39  UNL39      -0.3437
    154 H          -0.5274    5.7933   29.0727 H      39  UNL39       0.1146
    155 H           0.6399    6.1923   28.0109 H      39  UNL39       0.1146
    156 H           0.4018    4.6326   28.4105 H      39  UNL39       0.1146
    157 N          -0.0857    8.1686    1.0703 N.3    40  UNL40      -0.3437
    158 H          -0.5274    7.2968    0.7818 H      40  UNL40       0.1146
    159 H           0.6399    7.9087    1.7369 H      40  UNL40       0.1146
    160 H           0.4018    8.5220    0.2482 H      40  UNL40       0.1146
    161 N          -0.1221    7.8537    3.1055 N.3    41  UNL41      -0.3437
    162 H           0.0056    7.4705    4.0410 H      41  UNL41       0.1146
    163 H          -0.2172    8.8612    3.2252 H      41  UNL41       0.1146
    164 H           0.7625    7.7108    2.6203 H      41  UNL41       0.1146
    165 N          -0.1221    7.8537    5.3942 N.3    42  UNL42      -0.3437
    166 H           0.0056    7.4705    6.3298 H      42  UNL42       0.1146
    167 H          -0.2172    8.8612    5.5140 H      42  UNL42       0.1146
    168 H           0.7625    7.7108    4.9090 H      42  UNL42       0.1146
    169 N          -0.0857    8.1686    7.9365 N.3    43  UNL43      -0.3437
    170 H          -0.5274    7.2968    7.6479 H      43  UNL43       0.1146
    171 H           0.6399    7.9087    8.6031 H      43  UNL43       0.1146
    172 H           0.4018    8.5220    7.1144 H      43  UNL43       0.1146
    173 N          -0.0857    8.1686   10.2252 N.3    44  UNL44      -0.3437
    174 H          -0.5274    7.2968    9.9367 H      44  UNL44       0.1146
    175 H           0.6399    7.9087   10.8918 H      44  UNL44       0.1146
    176 H           0.4018    8.5220    9.4031 H      44  UNL44       0.1146
    177 N          -0.0857    8.1686   12.5139 N.3    45  UNL45      -0.3437
    178 H          -0.5274    7.2968   12.2254 H      45  UNL45       0.1146
    179 H           0.6399    7.9087   13.1805 H      45  UNL45       0.1146
    180 H           0.4018    8.5220   11.6918 H      45  UNL45       0.1146
    181 N          -0.0857    8.1686   14.8026 N.3    46  UNL46      -0.3437
    182 H          -0.5274    7.2968   14.5141 H      46  UNL46       0.1146
    183 H           0.6399    7.9087   15.4692 H      46  UNL46       0.1146
    184 H           0.4018    8.5220   13.9805 H      46  UNL46       0.1146
    185 N          -0.0857    8.1686   17.0913 N.3    47  UNL47      -0.3437
    186 H          -0.5274    7.2968   16.8028 H      47  UNL47       0.1146
    187 H           0.6399    7.9087   17.7579 H      47  UNL47       0.1146
    188 H           0.4018    8.5220   16.2692 H      47  UNL47       0.1146
    189 N          -0.0857    8.1686   19.3800 N.3    48  UNL48      -0.3437
    190 H          -0.5274    7.2968   19.0915 H      48  UNL48       0.1146
    191 H           0.6399    7.9087   20.0466 H      48  UNL48       0.1146
    192 H           0.4018    8.5220   18.5579 H      48  UNL48       0.1146
    193 N          -0.0857    7.9465   21.3354 N.3    49  UNL49      -0.3437
    194 H          -0.5274    8.2371   22.2065 H      49  UNL49       0.1146
    195 H           0.6399    8.6361   21.1447 H      49  UNL49       0.1146
    196 H           0.4018    7.0764   21.5443 H      49  UNL49       0.1146
    197 N           0.1209    8.1620   23.6187 N.3    50  UNL50      -0.3437
    198 H          -0.5005    8.4848   24.3589 H      50  UNL50       0.1146
    199 H           1.0271    8.0096   24.0592 H      50  UNL50       0.1146
    200 H          -0.2187    7.2399   23.3490 H      50  UNL50       0.1146
    201 N          -0.1221    7.8537   25.9927 N.3    51  UNL51      -0.3437
    202 H           0.0056    7.4705   26.9282 H      51  UNL51       0.1146
    203 H          -0.2172    8.8612   26.1124 H      51  UNL51       0.1146
    204 H           0.7625    7.7108   25.5074 H      51  UNL51       0.1146
    205 N          -0.1695    7.9635   29.3203 N.3    52  UNL52      -0.3437
    206 H          -0.0317    7.3700   30.1370 H      52  UNL52       0.1146
    207 H           0.1097    8.9015   29.6044 H      52  UNL52       0.1146
    208 H           0.5203    7.6612   28.6338 H      52  UNL52       0.1146
    209 N          -0.0857   10.6125    1.0703 N.3    53  UNL53      -0.3437
    210 H          -0.5274    9.7407    0.7818 H      53  UNL53       0.1146
    211 H           0.6399   10.3525    1.7369 H      53  UNL53       0.1146
    212 H           0.4018   10.9658    0.2482 H      53  UNL53       0.1146
    213 N          -0.0857   10.6125    3.3590 N.3    54  UNL54      -0.3437
    214 H          -0.5274    9.7407    3.0705 H      54  UNL54       0.1146
    215 H           0.6399   10.3525    4.0256 H      54  UNL54       0.1146
    216 H           0.4018   10.9658    2.5369 H      54  UNL54       0.1146
    217 N          -0.0857   10.6125    5.6477 N.3    55  UNL55      -0.3437
    218 H          -0.5274    9.7407    5.3592 H      55  UNL55       0.1146
    219 H           0.6399   10.3525    6.3143 H      55  UNL55       0.1146
    220 H           0.4018   10.9658    4.8256 H      55  UNL55       0.1146
    221 N          -0.0857   10.3903    7.6031 N.3    56  UNL56      -0.3437
    222 H          -0.5274   10.6809    8.4742 H      56  UNL56       0.1146
    223 H           0.6399   11.0799    7.4124 H      56  UNL56       0.1146
    224 H           0.4018    9.5202    7.8120 H      56  UNL56       0.1146
    225 N          -0.0857   10.2562   10.2693 N.3    57  UNL57      -0.3437
    226 H          -0.5274   10.7802    9.5151 H      57  UNL57       0.1146
    227 H           0.6399    9.6907    9.8309 H      57  UNL57       0.1146
    228 H           0.4018   10.9443   10.8413 H      57  UNL57       0.1146
    229 N          -0.0857   10.3903   12.1806 N.3    58  UNL58      -0.3437
    230 H          -0.5274   10.6809   13.0517 H      58  UNL58       0.1146
    231 H           0.6399   11.0799   11.9899 H      58  UNL58       0.1146
    232 H           0.4018    9.5202   12.3895 H      58  UNL58       0.1146
    233 N          -0.0857   10.2562   14.8467 N.3    59  UNL59      -0.3437
    234 H          -0.5274   10.7802   14.0926 H      59  UNL59       0.1146
    235 H           0.6399    9.6907   14.4084 H      59  UNL59       0.1146
    236 H           0.4018   10.9443   15.4188 H      59  UNL59       0.1146
    237 N          -0.0857   10.6125   17.0913 N.3    60  UNL60      -0.3437
    238 H          -0.5274    9.7407   16.8028 H      60  UNL60       0.1146
    239 H           0.6399   10.3525   17.7579 H      60  UNL60       0.1146
    240 H           0.4018   10.9658   16.2692 H      60  UNL60       0.1146
    241 N          -0.0857   10.6125   19.3800 N.3    61  UNL61      -0.3437
    242 H          -0.5274    9.7407   19.0915 H      61  UNL61       0.1146
    243 H           0.6399   10.3525   20.0466 H      61  UNL61       0.1146
    244 H           0.4018   10.9658   18.5579 H      61  UNL61       0.1146
    245 N          -0.1221   10.2975   21.4152 N.3    62  UNL62      -0.3437
    246 H           0.0056    9.9143   22.3508 H      62  UNL62       0.1146
    247 H          -0.2172   11.3050   21.5350 H      62  UNL62       0.1146
    248 H           0.7625   10.1547   20.9300 H      62  UNL62       0.1146
    249 N          -0.0857   10.2562   24.0016 N.3    63  UNL63      -0.3437
    250 H          -0.5274   10.7802   23.2474 H      63  UNL63       0.1146
    251 H           0.6399    9.6907   23.5632 H      63  UNL63       0.1146
    252 H           0.4018   10.9443   24.5736 H      63  UNL63       0.1146
    253 N          -0.0857   10.6125   26.2462 N.3    64  UNL64      -0.3437
    254 H          -0.5274    9.7407   25.9577 H      64  UNL64       0.1146
    255 H           0.6399   10.3525   26.9128 H      64  UNL64       0.1146
    256 H           0.4018   10.9658   25.4241 H      64  UNL64       0.1146
    257 N          -0.1695   10.4074   29.3203 N.3    65  UNL65      -0.3437
    258 H          -0.0317    9.8138   30.1370 H      65  UNL65       0.1146
    259 H           0.1097   11.3453   29.6044 H      65  UNL65       0.1146
    260 H           0.5203   10.1050   28.6338 H      65  UNL65       0.1146
    261 N           0.1209   13.0496    0.7315 N.3    66  UNL66      -0.3437
    262 H          -0.5005   13.3724    1.4717 H      66  UNL66       0.1146
    263 H           1.0271   12.8972    1.1721 H      66  UNL66       0.1146
    264 H          -0.2187   12.1275    0.4619 H      66  UNL66       0.1146
    265 N           0.1209   13.0496    3.0203 N.3    67  UNL67      -0.3437
    266 H          -0.5005   13.3724    3.7605 H      67  UNL67       0.1146
    267 H           1.0271   12.8972    3.4608 H      67  UNL67       0.1146
    268 H          -0.2187   12.1275    2.7506 H      67  UNL67       0.1146
    269 N           0.1209   13.0496    5.3090 N.3    68  UNL68      -0.3437
    270 H          -0.5005   13.3724    6.0492 H      68  UNL68       0.1146
    271 H           1.0271   12.8972    5.7495 H      68  UNL68       0.1146
    272 H          -0.2187   12.1275    5.0393 H      68  UNL68       0.1146
    273 N           0.1209   13.0496    7.5977 N.3    69  UNL69      -0.3437
    274 H          -0.5005   13.3724    8.3379 H      69  UNL69       0.1146
    275 H           1.0271   12.8972    8.0382 H      69  UNL69       0.1146
    276 H          -0.2187   12.1275    7.3280 H      69  UNL69       0.1146
    277 N           0.1209   13.0496    9.8864 N.3    70  UNL70      -0.3437
    278 H          -0.5005   13.3724   10.6266 H      70  UNL70       0.1146
    279 H           1.0271   12.8972   10.3270 H      70  UNL70       0.1146
    280 H          -0.2187   12.1275    9.6167 H      70  UNL70       0.1146
    281 N           0.1209   13.0496   12.1751 N.3    71  UNL71      -0.3437
    282 H          -0.5005   13.3724   12.9153 H      71  UNL71       0.1146
    283 H           1.0271   12.8972   12.6157 H      71  UNL71       0.1146
    284 H          -0.2187   12.1275   11.9054 H      71  UNL71       0.1146
    285 N           0.1209   13.0496   14.4638 N.3    72  UNL72      -0.3437
    286 H          -0.5005   13.3724   15.2040 H      72  UNL72       0.1146
    287 H           1.0271   12.8972   14.9044 H      72  UNL72       0.1146
    288 H          -0.2187   12.1275   14.1941 H      72  UNL72       0.1146
    289 N           0.1209   13.0496   16.7525 N.3    73  UNL73      -0.3437
    290 H          -0.5005   13.3724   17.4928 H      73  UNL73       0.1146
    291 H           1.0271   12.8972   17.1931 H      73  UNL73       0.1146
    292 H          -0.2187   12.1275   16.4829 H      73  UNL73       0.1146
    293 N           0.1209   13.0496   19.0413 N.3    74  UNL74      -0.3437
    294 H          -0.5005   13.3724   19.7815 H      74  UNL74       0.1146
    295 H           1.0271   12.8972   19.4818 H      74  UNL74       0.1146
    296 H          -0.2187   12.1275   18.7716 H      74  UNL74       0.1146
    297 N          -0.0857   12.8341   21.3354 N.3    75  UNL75      -0.3437
    298 H          -0.5274   13.1247   22.2065 H      75  UNL75       0.1146
    299 H           0.6399   13.5237   21.1447 H      75  UNL75       0.1146
    300 H           0.4018   11.9640   21.5443 H      75  UNL75       0.1146
    301 N          -0.0857   12.7000   24.0016 N.3    76  UNL76      -0.3437
    302 H          -0.5274   13.2240   23.2474 H      76  UNL76       0.1146
    303 H           0.6399   12.1345   23.5632 H      76  UNL76       0.1146
    304 H           0.4018   13.3881   24.5736 H      76  UNL76       0.1146
    305 N          -0.0857   13.0563   26.2462 N.3    77  UNL77      -0.3437
    306 H          -0.5274   12.1845   25.9577 H      77  UNL77       0.1146
    307 H           0.6399   12.7963   26.9128 H      77  UNL77       0.1146
    308 H           0.4018   13.4096   25.4241 H      77  UNL77       0.1146
    309 N          -0.1695   12.8512   29.3203 N.3    78  UNL78      -0.3437
    310 H          -0.0317   12.2576   30.1370 H      78  UNL78       0.1146
    311 H           0.1097   13.7891   29.6044 H      78  UNL78       0.1146
    312 H           0.5203   12.5488   28.6338 H      78  UNL78       0.1146
    313 N          -0.0857   15.5001    1.0703 N.3    79  UNL79      -0.3437
    314 H          -0.5274   14.6283    0.7818 H      79  UNL79       0.1146
    315 H           0.6399   15.2401    1.7369 H      79  UNL79       0.1146
    316 H           0.4018   15.8534    0.2482 H      79  UNL79       0.1146
    317 N          -0.0857   15.5001    3.3590 N.3    80  UNL80      -0.3437
    318 H          -0.5274   14.6283    3.0705 H      80  UNL80       0.1146
    319 H           0.6399   15.2401    4.0256 H      80  UNL80       0.1146
    320 H           0.4018   15.8534    2.5369 H      80  UNL80       0.1146
    321 N          -0.0857   15.5001    5.6477 N.3    81  UNL81      -0.3437
    322 H          -0.5274   14.6283    5.3592 H      81  UNL81       0.1146
    323 H           0.6399   15.2401    6.3143 H      81  UNL81       0.1146
    324 H           0.4018   15.8534    4.8256 H      81  UNL81       0.1146
    325 N          -0.0857   15.5001    7.9365 N.3    82  UNL82      -0.3437
    326 H          -0.5274   14.6283    7.6479 H      82  UNL82       0.1146
    327 H           0.6399   15.2401    8.6031 H      82  UNL82       0.1146
    328 H           0.4018   15.8534    7.1144 H      82  UNL82       0.1146
    329 N          -0.0857   15.5001   10.2252 N.3    83  UNL83      -0.3437
    330 H          -0.5274   14.6283    9.9367 H      83  UNL83       0.1146
    331 H           0.6399   15.2401   10.8918 H      83  UNL83       0.1146
    332 H           0.4018   15.8534    9.4031 H      83  UNL83       0.1146
    333 N          -0.0857   15.5001   12.5139 N.3    84  UNL84      -0.3437
    334 H          -0.5274   14.6283   12.2254 H      84  UNL84       0.1146
    335 H           0.6399   15.2401   13.1805 H      84  UNL84       0.1146
    336 H           0.4018   15.8534   11.6918 H      84  UNL84       0.1146
    337 N          -0.0857   15.5001   14.8026 N.3    85  UNL85      -0.3437
    338 H          -0.5274   14.6283   14.5141 H      85  UNL85       0.1146
    339 H           0.6399   15.2401   15.4692 H      85  UNL85       0.1146
    340 H           0.4018   15.8534   13.9805 H      85  UNL85       0.1146
    341 N          -0.0857   15.5001   17.0913 N.3    86  UNL86      -0.3437
    342 H          -0.5274   14.6283   16.8028 H      86  UNL86       0.1146
    343 H           0.6399   15.2401   17.7579 H      86  UNL86       0.1146
    344 H           0.4018   15.8534   16.2692 H      86  UNL86       0.1146
    345 N          -0.0857   15.5001   19.3800 N.3    87  UNL87      -0.3437
    346 H          -0.5274   14.6283   19.0915 H      87  UNL87       0.1146
    347 H           0.6399   15.2401   20.0466 H      87  UNL87       0.1146
    348 H           0.4018   15.8534   18.5579 H      87  UNL87       0.1146
    349 N          -0.1221   15.1851   21.4152 N.3    88  UNL88      -0.3437
    350 H           0.0056   14.8019   22.3508 H      88  UNL88       0.1146
    351 H          -0.2172   16.1926   21.5350 H      88  UNL88       0.1146
    352 H           0.7625   15.0423   20.9300 H      88  UNL88       0.1146
    353 N          -0.0857   15.5001   23.9575 N.3    89  UNL89      -0.3437
    354 H          -0.5274   14.6283   23.6690 H      89  UNL89       0.1146
    355 H           0.6399   15.2401   24.6241 H      89  UNL89       0.1146
    356 H           0.4018   15.8534   23.1354 H      89  UNL89       0.1146
    357 N          -0.0857   15.5001   26.2462 N.3    90  UNL90      -0.3437
    358 H          -0.5274   14.6283   25.9577 H      90  UNL90       0.1146
    359 H           0.6399   15.2401   26.9128 H      90  UNL90       0.1146
    360 H           0.4018   15.8534   25.4241 H      90  UNL90       0.1146
    361 N          -0.1695   15.2950   29.3203 N.3    91  UNL91      -0.3437
    362 H          -0.0317   14.7014   30.1370 H      91  UNL91       0.1146
    363 H           0.1097   16.2329   29.6044 H      91  UNL91       0.1146
    364 H           0.5203   14.9926   28.6338 H      91  UNL91       0.1146
    365 N          -0.0857   17.7217    0.7370 N.3    92  UNL92      -0.3437
    366 H          -0.5274   18.0123    1.6081 H      92  UNL92       0.1146
    367 H           0.6399   18.4114    0.5463 H      92  UNL92       0.1146
    368 H           0.4018   16.8517    0.9459 H      92  UNL92       0.1146
    369 N          -0.0857   17.7217    3.0257 N.3    93  UNL93      -0.3437
    370 H          -0.5274   18.0123    3.8968 H      93  UNL93       0.1146
    371 H           0.6399   18.4114    2.8350 H      93  UNL93       0.1146
    372 H           0.4018   16.8517    3.2346 H      93  UNL93       0.1146
    373 N          -0.0857   17.7217    5.3144 N.3    94  UNL94      -0.3437
    374 H          -0.5274   18.0123    6.1855 H      94  UNL94       0.1146
    375 H           0.6399   18.4114    5.1237 H      94  UNL94       0.1146
    376 H           0.4018   16.8517    5.5233 H      94  UNL94       0.1146
    377 N          -0.0857   17.7217    7.6031 N.3    95  UNL95      -0.3437
    378 H          -0.5274   18.0123    8.4742 H      95  UNL95       0.1146
    379 H           0.6399   18.4114    7.4124 H      95  UNL95       0.1146
    380 H           0.4018   16.8517    7.8120 H      95  UNL95       0.1146
    381 N          -0.0857   17.7217    9.8918 N.3    96  UNL96      -0.3437
    382 H          -0.5274   18.0123   10.7629 H      96  UNL96       0.1146
    383 H           0.6399   18.4114    9.7011 H      96  UNL96       0.1146
    384 H           0.4018   16.8517   10.1007 H      96  UNL96       0.1146
    385 N           0.1209   17.9372   12.1751 N.3    97  UNL97      -0.3437
    386 H          -0.5005   18.2600   12.9153 H      97  UNL97       0.1146
    387 H           1.0271   17.7848   12.6157 H      97  UNL97       0.1146
    388 H          -0.2187   17.0151   11.9054 H      97  UNL97       0.1146
    389 N          -0.0857   17.7217   14.4693 N.3    98  UNL98      -0.3437
    390 H          -0.5274   18.0123   15.3404 H      98  UNL98       0.1146
    391 H           0.6399   18.4114   14.2786 H      98  UNL98       0.1146
    392 H           0.4018   16.8517   14.6782 H      98  UNL98       0.1146
    393 N          -0.0857   17.7217   16.7580 N.3    99  UNL99      -0.3437
    394 H          -0.5274   18.0123   17.6291 H      99  UNL99       0.1146
    395 H           0.6399   18.4114   16.5673 H      99  UNL99       0.1146
    396 H           0.4018   16.8517   16.9669 H      99  UNL99       0.1146
    397 N          -0.0857   17.7217   19.0467 N.3   100  UNL100     -0.3437
    398 H          -0.5274   18.0123   19.9178 H     100  UNL100      0.1146
    399 H           0.6399   18.4114   18.8560 H     100  UNL100      0.1146
    400 H           0.4018   16.8517   19.2556 H     100  UNL100      0.1146
    401 N          -0.0857   17.7217   21.3354 N.3   101  UNL101     -0.3437
    402 H          -0.5274   18.0123   22.2065 H     101  UNL101      0.1146
    403 H           0.6399   18.4114   21.1447 H     101  UNL101      0.1146
    404 H           0.4018   16.8517   21.5443 H     101  UNL101      0.1146
    405 N          -0.0857   17.7217   23.6241 N.3   102  UNL102     -0.3437
    406 H          -0.5274   18.0123   24.4952 H     102  UNL102      0.1146
    407 H           0.6399   18.4114   23.4334 H     102  UNL102      0.1146
    408 H           0.4018   16.8517   23.8330 H     102  UNL102      0.1146
    409 N          -0.0857   17.7217   25.9128 N.3   103  UNL103     -0.3437
    410 H          -0.5274   18.0123   26.7840 H     103  UNL103      0.1146
    411 H           0.6399   18.4114   25.7221 H     103  UNL103      0.1146
    412 H           0.4018   16.8517   26.1217 H     103  UNL103      0.1146
    413 N          -0.0857   17.7217   28.2016 N.3   104  UNL104     -0.3437
    414 H          -0.5274   18.0123   29.0727 H     104  UNL104      0.1146
    415 H           0.6399   18.4114   28.0109 H     104  UNL104      0.1146
    416 H           0.4018   16.8517   28.4105 H     104  UNL104      0.1146
    417 N          -0.0857   20.3877    1.0703 N.3   105  UNL105     -0.3437
    418 H          -0.5274   19.5159    0.7818 H     105  UNL105      0.1146
    419 H           0.6399   20.1278    1.7369 H     105  UNL105      0.1146
    420 H           0.4018   20.7410    0.2482 H     105  UNL105      0.1146
    421 N          -0.0857   20.3877    3.3590 N.3   106  UNL106     -0.3437
    422 H          -0.5274   19.5159    3.0705 H     106  UNL106      0.1146
    423 H           0.6399   20.1278    4.0256 H     106  UNL106      0.1146
    424 H           0.4018   20.7410    2.5369 H     106  UNL106      0.1146
    425 N          -0.0857   20.3877    5.6477 N.3   107  UNL107     -0.3437
    426 H          -0.5274   19.5159    5.3592 H     107  UNL107      0.1146
    427 H           0.6399   20.1278    6.3143 H     107  UNL107      0.1146
    428 H           0.4018   20.7410    4.8256 H     107  UNL107      0.1146
    429 N          -0.0857   20.3877    7.9365 N.3   108  UNL108     -0.3437
    430 H          -0.5274   19.5159    7.6479 H     108  UNL108      0.1146
    431 H           0.6399   20.1278    8.6031 H     108  UNL108      0.1146
    432 H           0.4018   20.7410    7.1144 H     108  UNL108      0.1146
    433 N          -0.0857   20.1656    9.8918 N.3   109  UNL109     -0.3437
    434 H          -0.5274   20.4562   10.7629 H     109  UNL109      0.1146
    435 H           0.6399   20.8552    9.7011 H     109  UNL109      0.1146
    436 H           0.4018   19.2955   10.1007 H     109  UNL109      0.1146
    437 N          -0.0857   20.1656   12.1806 N.3   110  UNL110     -0.3437
    438 H          -0.5274   20.4562   13.0517 H     110  UNL110      0.1146
    439 H           0.6399   20.8552   11.9899 H     110  UNL110      0.1146
    440 H           0.4018   19.2955   12.3895 H     110  UNL110      0.1146
    441 N           0.1209   20.3810   14.4638 N.3   111  UNL111     -0.3437
    442 H          -0.5005   20.7038   15.2040 H     111  UNL111      0.1146
    443 H           1.0271   20.2286   14.9044 H     111  UNL111      0.1146
    444 H          -0.2187   19.4589   14.1941 H     111  UNL111      0.1146
    445 N          -0.1221   20.0727   16.8378 N.3   112  UNL112     -0.3437
    446 H           0.0056   19.6895   17.7733 H     112  UNL112      0.1146
    447 H          -0.2172   21.0802   16.9575 H     112  UNL112      0.1146
    448 H           0.7625   19.9299   16.3526 H     112  UNL112      0.1146
    449 N          -0.1221   20.0727   19.1265 N.3   113  UNL113     -0.3437
    450 H           0.0056   19.6895   20.0621 H     113  UNL113      0.1146
    451 H          -0.2172   21.0802   19.2462 H     113  UNL113      0.1146
    452 H           0.7625   19.9299   18.6413 H     113  UNL113      0.1146
    453 N          -0.0857   20.0314   21.7128 N.3   114  UNL114     -0.3437
    454 H          -0.5274   20.5554   20.9587 H     114  UNL114      0.1146
    455 H           0.6399   19.4660   21.2745 H     114  UNL114      0.1146
    456 H           0.4018   20.7195   22.2849 H     114  UNL114      0.1146
    457 N          -0.0857   20.3877   23.9575 N.3   115  UNL115     -0.3437
    458 H          -0.5274   19.5159   23.6690 H     115  UNL115      0.1146
    459 H           0.6399   20.1278   24.6241 H     115  UNL115      0.1146
    460 H           0.4018   20.7410   23.1354 H     115  UNL115      0.1146
    461 N          -0.0857   20.3877   26.2462 N.3   116  UNL116     -0.3437
    462 H          -0.5274   19.5159   25.9577 H     116  UNL116      0.1146
    463 H           0.6399   20.1278   26.9128 H     116  UNL116      0.1146
    464 H           0.4018   20.7410   25.4241 H     116  UNL116      0.1146
    465 N          -0.1695   20.1826   29.3203 N.3   117  UNL117     -0.3437
    466 H          -0.0317   19.5890   30.1370 H     117  UNL117      0.1146
    467 H           0.1097   21.1205   29.6044 H     117  UNL117      0.1146
    468 H           0.5203   19.8802   28.6338 H     117  UNL117      0.1146
    469 N          -0.0857   22.8315    1.0703 N.3   118  UNL118     -0.3437
    470 H          -0.5274   21.9597    0.7818 H     118  UNL118      0.1146
    471 H           0.6399   22.5716    1.7369 H     118  UNL118      0.1146
    472 H           0.4018   23.1848    0.2482 H     118  UNL118      0.1146
    473 N          -0.0857   22.6094    3.0257 N.3   119  UNL119     -0.3437
    474 H          -0.5274   22.9000    3.8968 H     119  UNL119      0.1146
    475 H           0.6399   23.2990    2.8350 H     119  UNL119      0.1146
    476 H           0.4018   21.7393    3.2346 H     119  UNL119      0.1146
    477 N          -0.0857   22.4752    5.6918 N.3   120  UNL120     -0.3437
    478 H          -0.5274   22.9992    4.9377 H     120  UNL120      0.1146
    479 H           0.6399   21.9098    5.2535 H     120  UNL120      0.1146
    480 H           0.4018   23.1633    6.2639 H     120  UNL120      0.1146
    481 N          -0.0857   22.8315    7.9365 N.3   121  UNL121     -0.3437
    482 H          -0.5274   21.9597    7.6479 H     121  UNL121      0.1146
    483 H           0.6399   22.5716    8.6031 H     121  UNL121      0.1146
    484 H           0.4018   23.1848    7.1144 H     121  UNL121      0.1146
    485 N          -0.1221   22.5165    9.9717 N.3   122  UNL122     -0.3437
    486 H           0.0056   22.1333   10.9072 H     122  UNL122      0.1146
    487 H          -0.2172   23.5240   10.0914 H     122  UNL122      0.1146
    488 H           0.7625   22.3737    9.4864 H     122  UNL122      0.1146
    489 N          -0.0857   22.4752   12.5580 N.3   123  UNL123     -0.3437
    490 H          -0.5274   22.9992   11.8039 H     123  UNL123      0.1146
    491 H           0.6399   21.9098   12.1196 H     123  UNL123      0.1146
    492 H           0.4018   23.1633   13.1301 H     123  UNL123      0.1146
    493 N          -0.0857   22.8315   14.8026 N.3   124  UNL124     -0.3437
    494 H          -0.5274   21.9597   14.5141 H     124  UNL124      0.1146
    495 H           0.6399   22.5716   15.4692 H     124  UNL124      0.1146
    496 H           0.4018   23.1848   13.9805 H     124  UNL124      0.1146
    497 N          -0.0857   22.8315   17.0913 N.3   125  UNL125     -0.3437
    498 H          -0.5274   21.9597   16.8028 H     125  UNL125      0.1146
    499 H           0.6399   22.5716   17.7579 H     125  UNL125      0.1146
    500 H           0.4018   23.1848   16.2692 H     125  UNL125      0.1146
    501 N          -0.0857   22.8315   19.3800 N.3   126  UNL126     -0.3437
    502 H          -0.5274   21.9597   19.0915 H     126  UNL126      0.1146
    503 H           0.6399   22.5716   20.0466 H     126  UNL126      0.1146
    504 H           0.4018   23.1848   18.5579 H     126  UNL126      0.1146
    505 N          -0.0857   22.6094   21.3354 N.3   127  UNL127     -0.3437
    506 H          -0.5274   22.9000   22.2065 H     127  UNL127      0.1146
    507 H           0.6399   23.2990   21.1447 H     127  UNL127      0.1146
    508 H           0.4018   21.7393   21.5443 H     127  UNL127      0.1146
    509 N           0.1209   22.8248   23.6187 N.3   128  UNL128     -0.3437
    510 H          -0.5005   23.1476   24.3589 H     128  UNL128      0.1146
    511 H           1.0271   22.6724   24.0592 H     128  UNL128      0.1146
    512 H          -0.2187   21.9027   23.3490 H     128  UNL128      0.1146
    513 N          -0.1221   22.5165   25.9927 N.3   129  UNL129     -0.3437
    514 H           0.0056   22.1333   26.9282 H     129  UNL129      0.1146
    515 H          -0.2172   23.5240   26.1124 H     129  UNL129      0.1146
    516 H           0.7625   22.3737   25.5074 H     129  UNL129      0.1146
    517 N          -0.1695   22.6264   29.3203 N.3   130  UNL130     -0.3437
    518 H          -0.0317   22.0328   30.1370 H     130  UNL130      0.1146
    519 H           0.1097   23.5643   29.6044 H     130  UNL130      0.1146
    520 H           0.5203   22.3240   28.6338 H     130  UNL130      0.1146
    521 N          -0.0857   25.2753    1.0703 N.3   131  UNL131     -0.3437
    522 H          -0.5274   24.4035    0.7818 H     131  UNL131      0.1146
    523 H           0.6399   25.0154    1.7369 H     131  UNL131      0.1146
    524 H           0.4018   25.6286    0.2482 H     131  UNL131      0.1146
    525 N          -0.0857   25.0532    3.0257 N.3   132  UNL132     -0.3437
    526 H          -0.5274   25.3438    3.8968 H     132  UNL132      0.1146
    527 H           0.6399   25.7428    2.8350 H     132  UNL132      0.1146
    528 H           0.4018   24.1831    3.2346 H     132  UNL132      0.1146
    529 N          -0.0857   24.9191    5.6918 N.3   133  UNL133     -0.3437
    530 H          -0.5274   25.4430    4.9377 H     133  UNL133      0.1146
    531 H           0.6399   24.3536    5.2535 H     133  UNL133      0.1146
    532 H           0.4018   25.6071    6.2639 H     133  UNL133      0.1146
    533 N          -0.0857   25.2753    7.9365 N.3   134  UNL134     -0.3437
    534 H          -0.5274   24.4035    7.6479 H     134  UNL134      0.1146
    535 H           0.6399   25.0154    8.6031 H     134  UNL134      0.1146
    536 H           0.4018   25.6286    7.1144 H     134  UNL134      0.1146
    537 N          -0.0857   25.0532    9.8918 N.3   135  UNL135     -0.3437
    538 H          -0.5274   25.3438   10.7629 H     135  UNL135      0.1146
    539 H           0.6399   25.7428    9.7011 H     135  UNL135      0.1146
    540 H           0.4018   24.1831   10.1007 H     135  UNL135      0.1146
    541 N           0.1209   25.2686   12.1751 N.3   136  UNL136     -0.3437
    542 H          -0.5005   25.5914   12.9153 H     136  UNL136      0.1146
    543 H           1.0271   25.1162   12.6157 H     136  UNL136      0.1146
    544 H          -0.2187   24.3465   11.9054 H     136  UNL136      0.1146
    545 N           0.1209   25.2686   14.4638 N.3   137  UNL137     -0.3437
    546 H          -0.5005   25.5914   15.2040 H     137  UNL137      0.1146
    547 H           1.0271   25.1162   14.9044 H     137  UNL137      0.1146
    548 H          -0.2187   24.3465   14.1941 H     137  UNL137      0.1146
    549 N          -0.1221   24.9603   16.8378 N.3   138  UNL138     -0.3437
    550 H           0.0056   24.5771   17.7733 H     138  UNL138      0.1146
    551 H          -0.2172   25.9678   16.9575 H     138  UNL138      0.1146
    552 H           0.7625   24.8175   16.3526 H     138  UNL138      0.1146
    553 N          -0.1221   24.9603   19.1265 N.3   139  UNL139     -0.3437
    554 H           0.0056   24.5771   20.0621 H     139  UNL139      0.1146
    555 H          -0.2172   25.9678   19.2462 H     139  UNL139      0.1146
    556 H           0.7625   24.8175   18.6413 H     139  UNL139      0.1146
    557 N          -0.1221   24.9603   21.4152 N.3   140  UNL140     -0.3437
    558 H           0.0056   24.5771   22.3508 H     140  UNL140      0.1146
    559 H          -0.2172   25.9678   21.5350 H     140  UNL140      0.1146
    560 H           0.7625   24.8175   20.9300 H     140  UNL140      0.1146
    561 N          -0.0857   24.9191   24.0016 N.3   141  UNL141     -0.3437
    562 H          -0.5274   25.4430   23.2474 H     141  UNL141      0.1146
    563 H           0.6399   24.3536   23.5632 H     141  UNL141      0.1146
    564 H           0.4018   25.6071   24.5736 H     141  UNL141      0.1146
    565 N          -0.0857   25.2753   26.2462 N.3   142  UNL142     -0.3437
    566 H          -0.5274   24.4035   25.9577 H     142  UNL142      0.1146
    567 H           0.6399   25.0154   26.9128 H     142  UNL142      0.1146
    568 H           0.4018   25.6286   25.4241 H     142  UNL142      0.1146
    569 N          -0.1695   25.0702   29.3203 N.3   143  UNL143     -0.3437
    570 H          -0.0317   24.4766   30.1370 H     143  UNL143      0.1146
    571 H           0.1097   26.0081   29.6044 H     143  UNL143      0.1146
    572 H           0.5203   24.7678   28.6338 H     143  UNL143      0.1146
    573 N          -0.0857   27.4970    0.7370 N.3   144  UNL144     -0.3437
    574 H          -0.5274   27.7876    1.6081 H     144  UNL144      0.1146
    575 H           0.6399   28.1866    0.5463 H     144  UNL144      0.1146
    576 H           0.4018   26.6269    0.9459 H     144  UNL144      0.1146
    577 N          -0.1221   27.4041    3.1055 N.3   145  UNL145     -0.3437
    578 H           0.0056   27.0209    4.0410 H     145  UNL145      0.1146
    579 H          -0.2172   28.4116    3.2252 H     145  UNL145      0.1146
    580 H           0.7625   27.2613    2.6203 H     145  UNL145      0.1146
    581 N          -0.0857   27.4970    5.3144 N.3   146  UNL146     -0.3437
    582 H          -0.5274   27.7876    6.1855 H     146  UNL146      0.1146
    583 H           0.6399   28.1866    5.1237 H     146  UNL146      0.1146
    584 H           0.4018   26.6269    5.5233 H     146  UNL146      0.1146
    585 N          -0.0857   27.4970    7.6031 N.3   147  UNL147     -0.3437
    586 H          -0.5274   27.7876    8.4742 H     147  UNL147      0.1146
    587 H           0.6399   28.1866    7.4124 H     147  UNL147      0.1146
    588 H           0.4018   26.6269    7.8120 H     147  UNL147      0.1146
    589 N          -0.0857   27.3629   10.2693 N.3   148  UNL148     -0.3437
    590 H          -0.5274   27.8868    9.5151 H     148  UNL148      0.1146
    591 H           0.6399   26.7974    9.8309 H     148  UNL148      0.1146
    592 H           0.4018   28.0509   10.8413 H     148  UNL148      0.1146
    593 N          -0.0857   27.4970   12.1806 N.3   149  UNL149     -0.3437
    594 H          -0.5274   27.7876   13.0517 H     149  UNL149      0.1146
    595 H           0.6399   28.1866   11.9899 H     149  UNL149      0.1146
    596 H           0.4018   26.6269   12.3895 H     149  UNL149      0.1146
    597 N          -0.0857   27.4970   14.4693 N.3   150  UNL150     -0.3437
    598 H          -0.5274   27.7876   15.3404 H     150  UNL150      0.1146
    599 H           0.6399   28.1866   14.2786 H     150  UNL150      0.1146
    600 H           0.4018   26.6269   14.6782 H     150  UNL150      0.1146
    601 N          -0.0857   27.4970   16.7580 N.3   151  UNL151     -0.3437
    602 H          -0.5274   27.7876   17.6291 H     151  UNL151      0.1146
    603 H           0.6399   28.1866   16.5673 H     151  UNL151      0.1146
    604 H           0.4018   26.6269   16.9669 H     151  UNL151      0.1146
    605 N          -0.0857   27.4970   19.0467 N.3   152  UNL152     -0.3437
    606 H          -0.5274   27.7876   19.9178 H     152  UNL152      0.1146
    607 H           0.6399   28.1866   18.8560 H     152  UNL152      0.1146
    608 H           0.4018   26.6269   19.2556 H     152  UNL152      0.1146
    609 N          -0.0857   27.4970   21.3354 N.3   153  UNL153     -0.3437
    610 H          -0.5274   27.7876   22.2065 H     153  UNL153      0.1146
    611 H           0.6399   28.1866   21.1447 H     153  UNL153      0.1146
    612 H           0.4018   26.6269   21.5443 H     153  UNL153      0.1146
    613 N           0.1209   27.7124   23.6187 N.3   154  UNL154     -0.3437
    614 H          -0.5005   28.0352   24.3589 H     154  UNL154      0.1146
    615 H           1.0271   27.5600   24.0592 H     154  UNL154      0.1146
    616 H          -0.2187   26.7903   23.3490 H     154  UNL154      0.1146
    617 N          -0.0857   27.4970   25.9128 N.3   155  UNL155     -0.3437
    618 H          -0.5274   27.7876   26.7840 H     155  UNL155      0.1146
    619 H           0.6399   28.1866   25.7221 H     155  UNL155      0.1146
    620 H           0.4018   26.6269   26.1217 H     155  UNL155      0.1146
    621 N          -0.0857   27.4970   28.2016 N.3   156  UNL156     -0.3437
    622 H          -0.5274   27.7876   29.0727 H     156  UNL156      0.1146
    623 H           0.6399   28.1866   28.0109 H     156  UNL156      0.1146
    624 H           0.4018   26.6269   28.4105 H     156  UNL156      0.1146
    625 N          -0.0857   30.9408    0.7370 N.3   157  UNL157     -0.3437
    626 H          -0.5274   31.2314    1.6081 H     157  UNL157      0.1146
    627 H           0.6399   31.6304    0.5463 H     157  UNL157      0.1146
    628 H           0.4018   30.0707    0.9459 H     157  UNL157      0.1146
    629 N          -0.0857   30.9408    3.0257 N.3   158  UNL158     -0.3437
    630 H          -0.5274   31.2314    3.8968 H     158  UNL158      0.1146
    631 H           0.6399   31.6304    2.8350 H     158  UNL158      0.1146
    632 H           0.4018   30.0707    3.2346 H     158  UNL158      0.1146
    633 N          -0.0857   30.9408    5.3144 N.3   159  UNL159     -0.3437
    634 H          -0.5274   31.2314    6.1855 H     159  UNL159      0.1146
    635 H           0.6399   31.6304    5.1237 H     159  UNL159      0.1146
    636 H           0.4018   30.0707    5.5233 H     159  UNL159      0.1146
    637 N           0.0445   29.9408    8.1130 N.3   160  UNL160     -0.3437
    638 H           1.0067   30.2314    7.9456 H     160  UNL160      0.1146
    639 H          -0.5425   30.6304    7.6458 H     160  UNL160      0.1146
    640 H          -0.0799   29.0707    7.5974 H     160  UNL160      0.1146
    641 N          -0.0857   30.9408    9.8918 N.3   161  UNL161     -0.3437
    642 H          -0.5274   31.2314   10.7629 H     161  UNL161      0.1146
    643 H           0.6399   31.6304    9.7011 H     161  UNL161      0.1146
    644 H           0.4018   30.0707   10.1007 H     161  UNL161      0.1146
    645 N          -0.0857   30.9408   12.1806 N.3   162  UNL162     -0.3437
    646 H          -0.5274   31.2314   13.0517 H     162  UNL162      0.1146
    647 H           0.6399   31.6304   11.9899 H     162  UNL162      0.1146
    648 H           0.4018   30.0707   12.3895 H     162  UNL162      0.1146
    649 N           0.0445   29.9408   14.9792 N.3   163  UNL163     -0.3437
    650 H           1.0067   30.2314   14.8117 H     163  UNL163      0.1146
    651 H          -0.5425   30.6304   14.5120 H     163  UNL163      0.1146
    652 H          -0.0799   29.0707   14.4636 H     163  UNL163      0.1146
    653 N          -0.0857   30.9408   16.7580 N.3   164  UNL164     -0.3437
    654 H          -0.5274   31.2314   17.6291 H     164  UNL164      0.1146
    655 H           0.6399   31.6304   16.5673 H     164  UNL164      0.1146
    656 H           0.4018   30.0707   16.9669 H     164  UNL164      0.1146
    657 N          -0.0857   30.9408   19.0467 N.3   165  UNL165     -0.3437
    658 H          -0.5274   31.2314   19.9178 H     165  UNL165      0.1146
    659 H           0.6399   31.6304   18.8560 H     165  UNL165      0.1146
    660 H           0.4018   30.0707   19.2556 H     165  UNL165      0.1146
    661 N          -0.0857   30.9408   21.3354 N.3   166  UNL166     -0.3437
    662 H          -0.5274   31.2314   22.2065 H     166  UNL166      0.1146
    663 H           0.6399   31.6304   21.1447 H     166  UNL166      0.1146
    664 H           0.4018   30.0707   21.5443 H     166  UNL166      0.1146
    665 N          -0.0857   29.9408   23.6241 N.3   167  UNL167     -0.3437
    666 H          -0.5274   30.2314   24.4952 H     167  UNL167      0.1146
    667 H           0.6399   30.6304   23.4334 H     167  UNL167      0.1146
    668 H           0.4018   29.0707   23.8330 H     167  UNL167      0.1146
    669 N          -0.0857   30.9408   25.9128 N.3   168  UNL168     -0.3437
    670 H          -0.5274   31.2314   26.7840 H     168  UNL168      0.1146
    671 H           0.6399   31.6304   25.7221 H     168  UNL168      0.1146
    672 H           0.4018   30.0707   26.1217 H     168  UNL168      0.1146
    673 N           0.4007   30.9408   29.4024 N.3   169  UNL169     -0.3437
    674 H          -0.0328   31.2314   28.5273 H     169  UNL169      0.1146
    675 H           0.1192   31.6304   30.0979 H     169  UNL169      0.1146
    676 H          -0.0584   30.0707   29.6680 H     169  UNL169      0.1146
    677 N           2.1085    0.6151   -1.2630 N.3   170  UNL170     -0.3437
    678 H           1.6668    0.9057   -0.3919 H     170  UNL170      0.1146
    679 H           2.8341    1.3047   -1.4537 H     170  UNL170      0.1146
    680 H           2.5960   -0.2550   -1.0541 H     170  UNL170      0.1146
    681 N           2.0869    0.4424    1.2840 N.3   171  UNL171     -0.3437
    682 H           2.1453    1.1007    2.0596 H     171  UNL171      0.1146
    683 H           1.9621    1.0071    0.4450 H     171  UNL171      0.1146
    684 H           3.0110    0.0204    1.2035 H     171  UNL171      0.1146
    685 N           2.1085    0.8372    3.6477 N.3   172  UNL172     -0.3437
    686 H           1.6668   -0.0346    3.3592 H     172  UNL172      0.1146
    687 H           2.8341    0.5773    4.3143 H     172  UNL172      0.1146
    688 H           2.5960    1.1906    2.8256 H     172  UNL172      0.1146
    689 N           2.1085    0.8372    5.9365 N.3   173  UNL173     -0.3437
    690 H           1.6668   -0.0346    5.6479 H     173  UNL173      0.1146
    691 H           2.8341    0.5773    6.6031 H     173  UNL173      0.1146
    692 H           2.5960    1.1906    5.1144 H     173  UNL173      0.1146
    693 N           2.1085    0.8372    8.2252 N.3   174  UNL174     -0.3437
    694 H           1.6668   -0.0346    7.9367 H     174  UNL174      0.1146
    695 H           2.8341    0.5773    8.8918 H     174  UNL174      0.1146
    696 H           2.5960    1.1906    7.4031 H     174  UNL174      0.1146
    697 N           2.1085    0.8372   10.5139 N.3   175  UNL175     -0.3437
    698 H           1.6668   -0.0346   10.2254 H     175  UNL175      0.1146
    699 H           2.8341    0.5773   11.1805 H     175  UNL175      0.1146
    700 H           2.5960    1.1906    9.6918 H     175  UNL175      0.1146
    701 N           2.1085    0.8372   12.8026 N.3   176  UNL176     -0.3437
    702 H           1.6668   -0.0346   12.5141 H     176  UNL176      0.1146
    703 H           2.8341    0.5773   13.4692 H     176  UNL176      0.1146
    704 H           2.5960    1.1906   11.9805 H     176  UNL176      0.1146
    705 N           2.1085    0.8372   15.0913 N.3   177  UNL177     -0.3437
    706 H           1.6668   -0.0346   14.8028 H     177  UNL177      0.1146
    707 H           2.8341    0.5773   15.7579 H     177  UNL177      0.1146
    708 H           2.5960    1.1906   14.2692 H     177  UNL177      0.1146
    709 N           2.1085    0.8372   17.3800 N.3   178  UNL178     -0.3437
    710 H           1.6668   -0.0346   17.0915 H     178  UNL178      0.1146
    711 H           2.8341    0.5773   18.0466 H     178  UNL178      0.1146
    712 H           2.5960    1.1906   16.5579 H     178  UNL178      0.1146
    713 N           2.2386    0.6151   21.8453 N.3   179  UNL179     -0.3437
    714 H           3.2008    0.9057   21.6778 H     179  UNL179      0.1146
    715 H           1.6516    1.3047   21.3781 H     179  UNL179      0.1146
    716 H           2.1142   -0.2550   21.3297 H     179  UNL179      0.1146
    717 N           2.1085    0.6151   23.6241 N.3   180  UNL180     -0.3437
    718 H           1.6668    0.9057   24.4952 H     180  UNL180      0.1146
    719 H           2.8341    1.3047   23.4334 H     180  UNL180      0.1146
    720 H           2.5960   -0.2550   23.8330 H     180  UNL180      0.1146
    721 N           2.1085    0.8372   26.2462 N.3   181  UNL181     -0.3437
    722 H           1.6668   -0.0346   25.9577 H     181  UNL181      0.1146
    723 H           2.8341    0.5773   26.9128 H     181  UNL181      0.1146
    724 H           2.5960    1.1906   25.4241 H     181  UNL181      0.1146
    725 N           2.0247    0.6321   29.3203 N.3   182  UNL182     -0.3437
    726 H           2.1624    0.0386   30.1370 H     182  UNL182      0.1146
    727 H           2.3038    1.5701   29.6044 H     182  UNL182      0.1146
    728 H           2.7144    0.3298   28.6338 H     182  UNL182      0.1146
    729 N           2.1085    3.2810    1.0703 N.3   183  UNL183     -0.3437
    730 H           1.6668    2.4092    0.7818 H     183  UNL183      0.1146
    731 H           2.8341    3.0211    1.7369 H     183  UNL183      0.1146
    732 H           2.5960    3.6344    0.2482 H     183  UNL183      0.1146
    733 N           2.1085    3.2810    3.3590 N.3   184  UNL184     -0.3437
    734 H           1.6668    2.4092    3.0705 H     184  UNL184      0.1146
    735 H           2.8341    3.0211    4.0256 H     184  UNL184      0.1146
    736 H           2.5960    3.6344    2.5369 H     184  UNL184      0.1146
    737 N           2.1085    3.2810    5.6477 N.3   185  UNL185     -0.3437
    738 H           1.6668    2.4092    5.3592 H     185  UNL185      0.1146
    739 H           2.8341    3.0211    6.3143 H     185  UNL185      0.1146
    740 H           2.5960    3.6344    4.8256 H     185  UNL185      0.1146
    741 N           2.1085    3.2810    7.9365 N.3   186  UNL186     -0.3437
    742 H           1.6668    2.4092    7.6479 H     186  UNL186      0.1146
    743 H           2.8341    3.0211    8.6031 H     186  UNL186      0.1146
    744 H           2.5960    3.6344    7.1144 H     186  UNL186      0.1146
    745 N           2.3340    3.1598    9.8297 N.3   187  UNL187     -0.3437
    746 H           1.4242    2.7459   10.0278 H     187  UNL187      0.1146
    747 H           2.4211    3.9593   10.4555 H     187  UNL187      0.1146
    748 H           3.0259    2.4808   10.1437 H     187  UNL187      0.1146
    749 N           2.1085    3.0589   12.1806 N.3   188  UNL188     -0.3437
    750 H           1.6668    3.3495   13.0517 H     188  UNL188      0.1146
    751 H           2.8341    3.7485   11.9899 H     188  UNL188      0.1146
    752 H           2.5960    2.1888   12.3895 H     188  UNL188      0.1146
    753 N           2.3151    3.2743   14.4638 N.3   189  UNL189     -0.3437
    754 H           1.6936    3.5972   15.2040 H     189  UNL189      0.1146
    755 H           3.2212    3.1220   14.9044 H     189  UNL189      0.1146
    756 H           1.9754    2.3523   14.1941 H     189  UNL189      0.1146
    757 N           2.3151    3.2743   16.7525 N.3   190  UNL190     -0.3437
    758 H           1.6936    3.5972   17.4928 H     190  UNL190      0.1146
    759 H           3.2212    3.1220   17.1931 H     190  UNL190      0.1146
    760 H           1.9754    2.3523   16.4829 H     190  UNL190      0.1146
    761 N           2.3151    3.2743   19.0413 N.3   191  UNL191     -0.3437
    762 H           1.6936    3.5972   19.7815 H     191  UNL191      0.1146
    763 H           3.2212    3.1220   19.4818 H     191  UNL191      0.1146
    764 H           1.9754    2.3523   18.7716 H     191  UNL191      0.1146
    765 N           2.1085    3.0589   21.3354 N.3   192  UNL192     -0.3437
    766 H           1.6668    3.3495   22.2065 H     192  UNL192      0.1146
    767 H           2.8341    3.7485   21.1447 H     192  UNL192      0.1146
    768 H           2.5960    2.1888   21.5443 H     192  UNL192      0.1146
    769 N           2.1085    2.9248   24.0016 N.3   193  UNL193     -0.3437
    770 H           1.6668    3.4488   23.2474 H     193  UNL193      0.1146
    771 H           2.8341    2.3593   23.5632 H     193  UNL193      0.1146
    772 H           2.5960    3.6129   24.5736 H     193  UNL193      0.1146
    773 N           2.2386    3.0589   26.4227 N.3   194  UNL194     -0.3437
    774 H           3.2008    3.3495   26.2553 H     194  UNL194      0.1146
    775 H           1.6516    3.7485   25.9555 H     194  UNL194      0.1146
    776 H           2.1142    2.1888   25.9071 H     194  UNL194      0.1146
    777 N           2.0247    3.0759   29.3203 N.3   195  UNL195     -0.3437
    778 H           2.1624    2.4824   30.1370 H     195  UNL195      0.1146
    779 H           2.3038    4.0139   29.6044 H     195  UNL195      0.1146
    780 H           2.7144    2.7736   28.6338 H     195  UNL195      0.1146
    781 N           2.1085    5.5027    0.7370 N.3   196  UNL196     -0.3437
    782 H           1.6668    5.7933    1.6081 H     196  UNL196      0.1146
    783 H           2.8341    6.1923    0.5463 H     196  UNL196      0.1146
    784 H           2.5960    4.6326    0.9459 H     196  UNL196      0.1146
    785 N           2.1085    5.5027    3.0257 N.3   197  UNL197     -0.3437
    786 H           1.6668    5.7933    3.8968 H     197  UNL197      0.1146
    787 H           2.8341    6.1923    2.8350 H     197  UNL197      0.1146
    788 H           2.5960    4.6326    3.2346 H     197  UNL197      0.1146
    789 N           2.1085    5.5027    5.3144 N.3   198  UNL198     -0.3437
    790 H           1.6668    5.7933    6.1855 H     198  UNL198      0.1146
    791 H           2.8341    6.1923    5.1237 H     198  UNL198      0.1146
    792 H           2.5960    4.6326    5.5233 H     198  UNL198      0.1146
    793 N           2.1085    5.5027    7.6031 N.3   199  UNL199     -0.3437
    794 H           1.6668    5.7933    8.4742 H     199  UNL199      0.1146
    795 H           2.8341    6.1923    7.4124 H     199  UNL199      0.1146
    796 H           2.5960    4.6326    7.8120 H     199  UNL199      0.1146
    797 N           2.3151    5.7181    9.8864 N.3   200  UNL200     -0.3437
    798 H           1.6936    6.0410   10.6266 H     200  UNL200      0.1146
    799 H           3.2212    5.5658   10.3270 H     200  UNL200      0.1146
    800 H           1.9754    4.7961    9.6167 H     200  UNL200      0.1146
    801 N           2.3151    5.7181   12.1751 N.3   201  UNL201     -0.3437
    802 H           1.6936    6.0410   12.9153 H     201  UNL201      0.1146
    803 H           3.2212    5.5658   12.6157 H     201  UNL201      0.1146
    804 H           1.9754    4.7961   11.9054 H     201  UNL201      0.1146
    805 N           2.1085    5.5027   14.4693 N.3   202  UNL202     -0.3437
    806 H           1.6668    5.7933   15.3404 H     202  UNL202      0.1146
    807 H           2.8341    6.1923   14.2786 H     202  UNL202      0.1146
    808 H           2.5960    4.6326   14.6782 H     202  UNL202      0.1146
    809 N           2.1085    5.5027   16.7580 N.3   203  UNL203     -0.3437
    810 H           1.6668    5.7933   17.6291 H     203  UNL203      0.1146
    811 H           2.8341    6.1923   16.5673 H     203  UNL203      0.1146
    812 H           2.5960    4.6326   16.9669 H     203  UNL203      0.1146
    813 N           2.3151    5.7181   19.0413 N.3   204  UNL204     -0.3437
    814 H           1.6936    6.0410   19.7815 H     204  UNL204      0.1146
    815 H           3.2212    5.5658   19.4818 H     204  UNL204      0.1146
    816 H           1.9754    4.7961   18.7716 H     204  UNL204      0.1146
    817 N           2.0720    5.4099   21.4152 N.3   205  UNL205     -0.3437
    818 H           2.1998    5.0267   22.3508 H     205  UNL205      0.1146
    819 H           1.9769    6.4174   21.5350 H     205  UNL205      0.1146
    820 H           2.9566    5.2670   20.9300 H     205  UNL205      0.1146
    821 N           2.2386    5.5027   24.1340 N.3   206  UNL206     -0.3437
    822 H           3.2008    5.7933   23.9666 H     206  UNL206      0.1146
    823 H           1.6516    6.1923   23.6668 H     206  UNL206      0.1146
    824 H           2.1142    4.6326   23.6184 H     206  UNL206      0.1146
    825 N           2.3151    5.7181   25.9074 N.3   207  UNL207     -0.3437
    826 H           1.6936    6.0410   26.6476 H     207  UNL207      0.1146
    827 H           3.2212    5.5658   26.3480 H     207  UNL207      0.1146
    828 H           1.9754    4.7961   25.6377 H     207  UNL207      0.1146
    829 N           2.0247    5.5197   29.3203 N.3   208  UNL208     -0.3437
    830 H           2.1624    4.9262   30.1370 H     208  UNL208      0.1146
    831 H           2.3038    6.4577   29.6044 H     208  UNL208      0.1146
    832 H           2.7144    5.2174   28.6338 H     208  UNL208      0.1146
    833 N           2.1085    8.1686    1.0703 N.3   209  UNL209     -0.3437
    834 H           1.6668    7.2968    0.7818 H     209  UNL209      0.1146
    835 H           2.8341    7.9087    1.7369 H     209  UNL209      0.1146
    836 H           2.5960    8.5220    0.2482 H     209  UNL209      0.1146
    837 N           2.1085    7.9465    3.0257 N.3   210  UNL210     -0.3437
    838 H           1.6668    8.2371    3.8968 H     210  UNL210      0.1146
    839 H           2.8341    8.6361    2.8350 H     210  UNL210      0.1146
    840 H           2.5960    7.0764    3.2346 H     210  UNL210      0.1146
    841 N           2.1085    7.8124    5.6918 N.3   211  UNL211     -0.3437
    842 H           1.6668    8.3364    4.9377 H     211  UNL211      0.1146
    843 H           2.8341    7.2469    5.2535 H     211  UNL211      0.1146
    844 H           2.5960    8.5005    6.2639 H     211  UNL211      0.1146
    845 N           2.1085    8.1686    7.9365 N.3   212  UNL212     -0.3437
    846 H           1.6668    7.2968    7.6479 H     212  UNL212      0.1146
    847 H           2.8341    7.9087    8.6031 H     212  UNL212      0.1146
    848 H           2.5960    8.5220    7.1144 H     212  UNL212      0.1146
    849 N           2.1085    8.1686   10.2252 N.3   213  UNL213     -0.3437
    850 H           1.6668    7.2968    9.9367 H     213  UNL213      0.1146
    851 H           2.8341    7.9087   10.8918 H     213  UNL213      0.1146
    852 H           2.5960    8.5220    9.4031 H     213  UNL213      0.1146
    853 N           2.1085    8.1686   12.5139 N.3   214  UNL214     -0.3437
    854 H           1.6668    7.2968   12.2254 H     214  UNL214      0.1146
    855 H           2.8341    7.9087   13.1805 H     214  UNL214      0.1146
    856 H           2.5960    8.5220   11.6918 H     214  UNL214      0.1146
    857 N           2.1085    8.1686   14.8026 N.3   215  UNL215     -0.3437
    858 H           1.6668    7.2968   14.5141 H     215  UNL215      0.1146
    859 H           2.8341    7.9087   15.4692 H     215  UNL215      0.1146
    860 H           2.5960    8.5220   13.9805 H     215  UNL215      0.1146
    861 N           2.1085    8.1686   17.0913 N.3   216  UNL216     -0.3437
    862 H           1.6668    7.2968   16.8028 H     216  UNL216      0.1146
    863 H           2.8341    7.9087   17.7579 H     216  UNL216      0.1146
    864 H           2.5960    8.5220   16.2692 H     216  UNL216      0.1146
    865 N           2.1085    8.1686   19.3800 N.3   217  UNL217     -0.3437
    866 H           1.6668    7.2968   19.0915 H     217  UNL217      0.1146
    867 H           2.8341    7.9087   20.0466 H     217  UNL217      0.1146
    868 H           2.5960    8.5220   18.5579 H     217  UNL217      0.1146
    869 N           2.1085    7.9465   21.3354 N.3   218  UNL218     -0.3437
    870 H           1.6668    8.2371   22.2065 H     218  UNL218      0.1146
    871 H           2.8341    8.6361   21.1447 H     218  UNL218      0.1146
    872 H           2.5960    7.0764   21.5443 H     218  UNL218      0.1146
    873 N           2.1085    7.8124   24.0016 N.3   219  UNL219     -0.3437
    874 H           1.6668    8.3364   23.2474 H     219  UNL219      0.1146
    875 H           2.8341    7.2469   23.5632 H     219  UNL219      0.1146
    876 H           2.5960    8.5005   24.5736 H     219  UNL219      0.1146
    877 N           2.2386    7.9465   26.4227 N.3   220  UNL220     -0.3437
    878 H           3.2008    8.2371   26.2553 H     220  UNL220      0.1146
    879 H           1.6516    8.6361   25.9555 H     220  UNL220      0.1146
    880 H           2.1142    7.0764   25.9071 H     220  UNL220      0.1146
    881 N           2.0247    7.9635   29.3203 N.3   221  UNL221     -0.3437
    882 H           2.1624    7.3700   30.1370 H     221  UNL221      0.1146
    883 H           2.3038    8.9015   29.6044 H     221  UNL221      0.1146
    884 H           2.7144    7.6612   28.6338 H     221  UNL221      0.1146
    885 N           2.1085   10.6125    1.0703 N.3   222  UNL222     -0.3437
    886 H           1.6668    9.7407    0.7818 H     222  UNL222      0.1146
    887 H           2.8341   10.3525    1.7369 H     222  UNL222      0.1146
    888 H           2.5960   10.9658    0.2482 H     222  UNL222      0.1146
    889 N           2.0720   10.2975    3.1055 N.3   223  UNL223     -0.3437
    890 H           2.1998    9.9143    4.0410 H     223  UNL223      0.1146
    891 H           1.9769   11.3050    3.2252 H     223  UNL223      0.1146
    892 H           2.9566   10.1547    2.6203 H     223  UNL223      0.1146
    893 N           2.1085   10.6125    5.6477 N.3   224  UNL224     -0.3437
    894 H           1.6668    9.7407    5.3592 H     224  UNL224      0.1146
    895 H           2.8341   10.3525    6.3143 H     224  UNL224      0.1146
    896 H           2.5960   10.9658    4.8256 H     224  UNL224      0.1146
    897 N           2.1085   10.6125    7.9365 N.3   225  UNL225     -0.3437
    898 H           1.6668    9.7407    7.6479 H     225  UNL225      0.1146
    899 H           2.8341   10.3525    8.6031 H     225  UNL225      0.1146
    900 H           2.5960   10.9658    7.1144 H     225  UNL225      0.1146
    901 N           2.1085   10.6125   10.2252 N.3   226  UNL226     -0.3437
    902 H           1.6668    9.7407    9.9367 H     226  UNL226      0.1146
    903 H           2.8341   10.3525   10.8918 H     226  UNL226      0.1146
    904 H           2.5960   10.9658    9.4031 H     226  UNL226      0.1146
    905 N           2.1085   10.3903   12.1806 N.3   227  UNL227     -0.3437
    906 H           1.6668   10.6809   13.0517 H     227  UNL227      0.1146
    907 H           2.8341   11.0799   11.9899 H     227  UNL227      0.1146
    908 H           2.5960    9.5202   12.3895 H     227  UNL227      0.1146
    909 N           2.3151   10.6058   14.4638 N.3   228  UNL228     -0.3437
    910 H           1.6936   10.9286   15.2040 H     228  UNL228      0.1146
    911 H           3.2212   10.4534   14.9044 H     228  UNL228      0.1146
    912 H           1.9754    9.6837   14.1941 H     228  UNL228      0.1146
    913 N           2.0720   10.2975   16.8378 N.3   229  UNL229     -0.3437
    914 H           2.1998    9.9143   17.7733 H     229  UNL229      0.1146
    915 H           1.9769   11.3050   16.9575 H     229  UNL229      0.1146
    916 H           2.9566   10.1547   16.3526 H     229  UNL229      0.1146
    917 N           2.1085   10.6125   19.3800 N.3   230  UNL230     -0.3437
    918 H           1.6668    9.7407   19.0915 H     230  UNL230      0.1146
    919 H           2.8341   10.3525   20.0466 H     230  UNL230      0.1146
    920 H           2.5960   10.9658   18.5579 H     230  UNL230      0.1146
    921 N           2.1085   10.3903   21.3354 N.3   231  UNL231     -0.3437
    922 H           1.6668   10.6809   22.2065 H     231  UNL231      0.1146
    923 H           2.8341   11.0799   21.1447 H     231  UNL231      0.1146
    924 H           2.5960    9.5202   21.5443 H     231  UNL231      0.1146
    925 N           2.3151   10.6058   23.6187 N.3   232  UNL232     -0.3437
    926 H           1.6936   10.9286   24.3589 H     232  UNL232      0.1146
    927 H           3.2212   10.4534   24.0592 H     232  UNL232      0.1146
    928 H           1.9754    9.6837   23.3490 H     232  UNL232      0.1146
    929 N           2.0720   10.2975   25.9927 N.3   233  UNL233     -0.3437
    930 H           2.1998    9.9143   26.9282 H     233  UNL233      0.1146
    931 H           1.9769   11.3050   26.1124 H     233  UNL233      0.1146
    932 H           2.9566   10.1547   25.5074 H     233  UNL233      0.1146
    933 N           2.0247   10.4074   29.3203 N.3   234  UNL234     -0.3437
    934 H           2.1624    9.8138   30.1370 H     234  UNL234      0.1146
    935 H           2.3038   11.3453   29.6044 H     234  UNL234      0.1146
    936 H           2.7144   10.1050   28.6338 H     234  UNL234      0.1146
    937 N           2.1085   12.8341    0.7370 N.3   235  UNL235     -0.3437
    938 H           1.6668   13.1247    1.6081 H     235  UNL235      0.1146
    939 H           2.8341   13.5237    0.5463 H     235  UNL235      0.1146
    940 H           2.5960   11.9640    0.9459 H     235  UNL235      0.1146
    941 N           2.3457   12.6430    3.0541 N.3   236  UNL236     -0.3437
    942 H           1.4012   12.6450    3.4367 H     236  UNL236      0.1146
    943 H           2.4853   13.5662    2.6459 H     236  UNL236      0.1146
    944 H           2.9731   12.5925    3.8555 H     236  UNL236      0.1146
    945 N           2.1085   12.7000    5.6918 N.3   237  UNL237     -0.3437
    946 H           1.6668   13.2240    4.9377 H     237  UNL237      0.1146
    947 H           2.8341   12.1345    5.2535 H     237  UNL237      0.1146
    948 H           2.5960   13.3881    6.2639 H     237  UNL237      0.1146
    949 N           2.2386   12.8341    8.1130 N.3   238  UNL238     -0.3437
    950 H           3.2008   13.1247    7.9456 H     238  UNL238      0.1146
    951 H           1.6516   13.5237    7.6458 H     238  UNL238      0.1146
    952 H           2.1142   11.9640    7.5974 H     238  UNL238      0.1146
    953 N           2.1085   12.8341    9.8918 N.3   239  UNL239     -0.3437
    954 H           1.6668   13.1247   10.7629 H     239  UNL239      0.1146
    955 H           2.8341   13.5237    9.7011 H     239  UNL239      0.1146
    956 H           2.5960   11.9640   10.1007 H     239  UNL239      0.1146
    957 N           2.3457   12.6430   12.2090 N.3   240  UNL240     -0.3437
    958 H           1.4012   12.6450   12.5915 H     240  UNL240      0.1146
    959 H           2.4853   13.5662   11.8007 H     240  UNL240      0.1146
    960 H           2.9731   12.5925   13.0103 H     240  UNL240      0.1146
    961 N           2.1085   12.7000   14.8467 N.3   241  UNL241     -0.3437
    962 H           1.6668   13.2240   14.0926 H     241  UNL241      0.1146
    963 H           2.8341   12.1345   14.4084 H     241  UNL241      0.1146
    964 H           2.5960   13.3881   15.4188 H     241  UNL241      0.1146
    965 N           2.2386   12.8341   17.2679 N.3   242  UNL242     -0.3437
    966 H           3.2008   13.1247   17.1004 H     242  UNL242      0.1146
    967 H           1.6516   13.5237   16.8007 H     242  UNL242      0.1146
    968 H           2.1142   11.9640   16.7523 H     242  UNL242      0.1146
    969 N           2.1085   12.8341   19.0467 N.3   243  UNL243     -0.3437
    970 H           1.6668   13.1247   19.9178 H     243  UNL243      0.1146
    971 H           2.8341   13.5237   18.8560 H     243  UNL243      0.1146
    972 H           2.5960   11.9640   19.2556 H     243  UNL243      0.1146
    973 N           2.3457   12.6430   21.3639 N.3   244  UNL244     -0.3437
    974 H           1.4012   12.6450   21.7464 H     244  UNL244      0.1146
    975 H           2.4853   13.5662   20.9556 H     244  UNL244      0.1146
    976 H           2.9731   12.5925   22.1652 H     244  UNL244      0.1146
    977 N           2.3151   13.0496   23.6187 N.3   245  UNL245     -0.3437
    978 H           1.6936   13.3724   24.3589 H     245  UNL245      0.1146
    979 H           3.2212   12.8972   24.0592 H     245  UNL245      0.1146
    980 H           1.9754   12.1275   23.3490 H     245  UNL245      0.1146
    981 N           2.0720   12.7413   25.9927 N.3   246  UNL246     -0.3437
    982 H           2.1998   12.3581   26.9282 H     246  UNL246      0.1146
    983 H           1.9769   13.7488   26.1124 H     246  UNL246      0.1146
    984 H           2.9566   12.5985   25.5074 H     246  UNL246      0.1146
    985 N           2.0247   12.8512   29.3203 N.3   247  UNL247     -0.3437
    986 H           2.1624   12.2576   30.1370 H     247  UNL247      0.1146
    987 H           2.3038   13.7891   29.6044 H     247  UNL247      0.1146
    988 H           2.7144   12.5488   28.6338 H     247  UNL247      0.1146
    989 N           2.1085   15.5001    1.3590 N.3   248  UNL248     -0.3437
    990 H           1.6668   14.6283    1.0705 H     248  UNL248      0.1146
    991 H           2.8341   15.2401    2.0256 H     248  UNL248      0.1146
    992 H           2.5960   15.8534    0.5369 H     248  UNL248      0.1146
    993 N           2.1085   15.5001    3.6477 N.3   249  UNL249     -0.3437
    994 H           1.6668   14.6283    3.3592 H     249  UNL249      0.1146
    995 H           2.8341   15.2401    4.3143 H     249  UNL249      0.1146
    996 H           2.5960   15.8534    2.8256 H     249  UNL249      0.1146
    997 N           2.1085   15.5001    5.9365 N.3   250  UNL250     -0.3437
    998 H           1.6668   14.6283    5.6479 H     250  UNL250      0.1146
    999 H           2.8341   15.2401    6.6031 H     250  UNL250      0.1146
   1000 H           2.5960   15.8534    5.1144 H     250  UNL250      0.1146
   1001 N           2.1085   15.5001    8.2252 N.3   251  UNL251     -0.3437
   1002 H           1.6668   14.6283    7.9367 H     251  UNL251      0.1146
   1003 H           2.8341   15.2401    8.8918 H     251  UNL251      0.1146
   1004 H           2.5960   15.8534    7.4031 H     251  UNL251      0.1146
   1005 N           2.1085   15.5001   10.5139 N.3   252  UNL252     -0.3437
   1006 H           1.6668   14.6283   10.2254 H     252  UNL252      0.1146
   1007 H           2.8341   15.2401   11.1805 H     252  UNL252      0.1146
   1008 H           2.5960   15.8534    9.6918 H     252  UNL252      0.1146
   1009 N           2.1085   15.5001   12.8026 N.3   253  UNL253     -0.3437
   1010 H           1.6668   14.6283   12.5141 H     253  UNL253      0.1146
   1011 H           2.8341   15.2401   13.4692 H     253  UNL253      0.1146
   1012 H           2.5960   15.8534   11.9805 H     253  UNL253      0.1146
   1013 N           2.1085   15.5001   15.0913 N.3   254  UNL254     -0.3437
   1014 H           1.6668   14.6283   14.8028 H     254  UNL254      0.1146
   1015 H           2.8341   15.2401   15.7579 H     254  UNL254      0.1146
   1016 H           2.5960   15.8534   14.2692 H     254  UNL254      0.1146
   1017 N           2.1085   15.5001   17.3800 N.3   255  UNL255     -0.3437
   1018 H           1.6668   14.6283   17.0915 H     255  UNL255      0.1146
   1019 H           2.8341   15.2401   18.0466 H     255  UNL255      0.1146
   1020 H           2.5960   15.8534   16.5579 H     255  UNL255      0.1146
   1021 N           2.1085   15.1438   21.7128 N.3   256  UNL256     -0.3437
   1022 H           1.6668   15.6678   20.9587 H     256  UNL256      0.1146
   1023 H           2.8341   14.5784   21.2745 H     256  UNL256      0.1146
   1024 H           2.5960   15.8319   22.2849 H     256  UNL256      0.1146
   1025 N           2.1085   15.5001   23.9575 N.3   257  UNL257     -0.3437
   1026 H           1.6668   14.6283   23.6690 H     257  UNL257      0.1146
   1027 H           2.8341   15.2401   24.6241 H     257  UNL257      0.1146
   1028 H           2.5960   15.8534   23.1354 H     257  UNL257      0.1146
   1029 N           2.1085   15.5001   26.2462 N.3   258  UNL258     -0.3437
   1030 H           1.6668   14.6283   25.9577 H     258  UNL258      0.1146
   1031 H           2.8341   15.2401   26.9128 H     258  UNL258      0.1146
   1032 H           2.5960   15.8534   25.4241 H     258  UNL258      0.1146
   1033 N           2.0247   15.2950   29.3203 N.3   259  UNL259     -0.3437
   1034 H           2.1624   14.7014   30.1370 H     259  UNL259      0.1146
   1035 H           2.3038   16.2329   29.6044 H     259  UNL259      0.1146
   1036 H           2.7144   14.9926   28.6338 H     259  UNL259      0.1146
   1037 N           2.1085   17.7217    0.7370 N.3   260  UNL260     -0.3437
   1038 H           1.6668   18.0123    1.6081 H     260  UNL260      0.1146
   1039 H           2.8341   18.4114    0.5463 H     260  UNL260      0.1146
   1040 H           2.5960   16.8517    0.9459 H     260  UNL260      0.1146
   1041 N           2.1085   17.7217    3.0257 N.3   261  UNL261     -0.3437
   1042 H           1.6668   18.0123    3.8968 H     261  UNL261      0.1146
   1043 H           2.8341   18.4114    2.8350 H     261  UNL261      0.1146
   1044 H           2.5960   16.8517    3.2346 H     261  UNL261      0.1146
   1045 N           2.1085   17.7217    5.3144 N.3   262  UNL262     -0.3437
   1046 H           1.6668   18.0123    6.1855 H     262  UNL262      0.1146
   1047 H           2.8341   18.4114    5.1237 H     262  UNL262      0.1146
   1048 H           2.5960   16.8517    5.5233 H     262  UNL262      0.1146
   1049 N           2.1085   17.7217    7.6031 N.3   263  UNL263     -0.3437
   1050 H           1.6668   18.0123    8.4742 H     263  UNL263      0.1146
   1051 H           2.8341   18.4114    7.4124 H     263  UNL263      0.1146
   1052 H           2.5960   16.8517    7.8120 H     263  UNL263      0.1146
   1053 N           2.1085   17.7217    9.8918 N.3   264  UNL264     -0.3437
   1054 H           1.6668   18.0123   10.7629 H     264  UNL264      0.1146
   1055 H           2.8341   18.4114    9.7011 H     264  UNL264      0.1146
   1056 H           2.5960   16.8517   10.1007 H     264  UNL264      0.1146
   1057 N           2.1085   17.7217   12.1806 N.3   265  UNL265     -0.3437
   1058 H           1.6668   18.0123   13.0517 H     265  UNL265      0.1146
   1059 H           2.8341   18.4114   11.9899 H     265  UNL265      0.1146
   1060 H           2.5960   16.8517   12.3895 H     265  UNL265      0.1146
   1061 N           2.1085   17.7217   14.4693 N.3   266  UNL266     -0.3437
   1062 H           1.6668   18.0123   15.3404 H     266  UNL266      0.1146
   1063 H           2.8341   18.4114   14.2786 H     266  UNL266      0.1146
   1064 H           2.5960   16.8517   14.6782 H     266  UNL266      0.1146
   1065 N           2.1085   17.7217   16.7580 N.3   267  UNL267     -0.3437
   1066 H           1.6668   18.0123   17.6291 H     267  UNL267      0.1146
   1067 H           2.8341   18.4114   16.5673 H     267  UNL267      0.1146
   1068 H           2.5960   16.8517   16.9669 H     267  UNL267      0.1146
   1069 N           2.1085   17.7217   19.0467 N.3   268  UNL268     -0.3437
   1070 H           1.6668   18.0123   19.9178 H     268  UNL268      0.1146
   1071 H           2.8341   18.4114   18.8560 H     268  UNL268      0.1146
   1072 H           2.5960   16.8517   19.2556 H     268  UNL268      0.1146
   1073 N           2.1085   17.7217   21.3354 N.3   269  UNL269     -0.3437
   1074 H           1.6668   18.0123   22.2065 H     269  UNL269      0.1146
   1075 H           2.8341   18.4114   21.1447 H     269  UNL269      0.1146
   1076 H           2.5960   16.8517   21.5443 H     269  UNL269      0.1146
   1077 N           2.1085   17.7217   23.6241 N.3   270  UNL270     -0.3437
   1078 H           1.6668   18.0123   24.4952 H     270  UNL270      0.1146
   1079 H           2.8341   18.4114   23.4334 H     270  UNL270      0.1146
   1080 H           2.5960   16.8517   23.8330 H     270  UNL270      0.1146
   1081 N           2.1085   17.7217   25.9128 N.3   271  UNL271     -0.3437
   1082 H           1.6668   18.0123   26.7840 H     271  UNL271      0.1146
   1083 H           2.8341   18.4114   25.7221 H     271  UNL271      0.1146
   1084 H           2.5960   16.8517   26.1217 H     271  UNL271      0.1146
   1085 N           2.0247   17.7388   29.3203 N.3   272  UNL272     -0.3437
   1086 H           2.1624   17.1452   30.1370 H     272  UNL272      0.1146
   1087 H           2.3038   18.6767   29.6044 H     272  UNL272      0.1146
   1088 H           2.7144   17.4364   28.6338 H     272  UNL272      0.1146
   1089 N           2.1085   20.3877    1.0703 N.3   273  UNL273     -0.3437
   1090 H           1.6668   19.5159    0.7818 H     273  UNL273      0.1146
   1091 H           2.8341   20.1278    1.7369 H     273  UNL273      0.1146
   1092 H           2.5960   20.7410    0.2482 H     273  UNL273      0.1146
   1093 N           2.0720   20.0727    3.1055 N.3   274  UNL274     -0.3437
   1094 H           2.1998   19.6895    4.0410 H     274  UNL274      0.1146
   1095 H           1.9769   21.0802    3.2252 H     274  UNL274      0.1146
   1096 H           2.9566   19.9299    2.6203 H     274  UNL274      0.1146
   1097 N           2.0720   20.0727    5.3942 N.3   275  UNL275     -0.3437
   1098 H           2.1998   19.6895    6.3298 H     275  UNL275      0.1146
   1099 H           1.9769   21.0802    5.5140 H     275  UNL275      0.1146
   1100 H           2.9566   19.9299    4.9090 H     275  UNL275      0.1146
   1101 N           2.1085   20.3877    7.9365 N.3   276  UNL276     -0.3437
   1102 H           1.6668   19.5159    7.6479 H     276  UNL276      0.1146
   1103 H           2.8341   20.1278    8.6031 H     276  UNL276      0.1146
   1104 H           2.5960   20.7410    7.1144 H     276  UNL276      0.1146
   1105 N           2.3340   20.2664    9.8297 N.3   277  UNL277     -0.3437
   1106 H           1.4242   19.8525   10.0278 H     277  UNL277      0.1146
   1107 H           2.4211   21.0659   10.4555 H     277  UNL277      0.1146
   1108 H           3.0259   19.5874   10.1437 H     277  UNL277      0.1146
   1109 N           2.1085   20.1656   12.1806 N.3   278  UNL278     -0.3437
   1110 H           1.6668   20.4562   13.0517 H     278  UNL278      0.1146
   1111 H           2.8341   20.8552   11.9899 H     278  UNL278      0.1146
   1112 H           2.5960   19.2955   12.3895 H     278  UNL278      0.1146
   1113 N           2.1085   20.0314   14.8467 N.3   279  UNL279     -0.3437
   1114 H           1.6668   20.5554   14.0926 H     279  UNL279      0.1146
   1115 H           2.8341   19.4660   14.4084 H     279  UNL279      0.1146
   1116 H           2.5960   20.7195   15.4188 H     279  UNL279      0.1146
   1117 N           2.2386   20.1656   17.2679 N.3   280  UNL280     -0.3437
   1118 H           3.2008   20.4562   17.1004 H     280  UNL280      0.1146
   1119 H           1.6516   20.8552   16.8007 H     280  UNL280      0.1146
   1120 H           2.1142   19.2955   16.7523 H     280  UNL280      0.1146
   1121 N           2.2386   20.1656   19.5566 N.3   281  UNL281     -0.3437
   1122 H           3.2008   20.4562   19.3891 H     281  UNL281      0.1146
   1123 H           1.6516   20.8552   19.0894 H     281  UNL281      0.1146
   1124 H           2.1142   19.2955   19.0410 H     281  UNL281      0.1146
   1125 N           2.0720   20.0727   21.4152 N.3   282  UNL282     -0.3437
   1126 H           2.1998   19.6895   22.3508 H     282  UNL282      0.1146
   1127 H           1.9769   21.0802   21.5350 H     282  UNL282      0.1146
   1128 H           2.9566   19.9299   20.9300 H     282  UNL282      0.1146
   1129 N           2.0720   20.0727   23.7040 N.3   283  UNL283     -0.3437
   1130 H           2.1998   19.6895   24.6395 H     283  UNL283      0.1146
   1131 H           1.9769   21.0802   23.8237 H     283  UNL283      0.1146
   1132 H           2.9566   19.9299   23.2187 H     283  UNL283      0.1146
   1133 N           2.1085   20.3877   26.2462 N.3   284  UNL284     -0.3437
   1134 H           1.6668   19.5159   25.9577 H     284  UNL284      0.1146
   1135 H           2.8341   20.1278   26.9128 H     284  UNL284      0.1146
   1136 H           2.5960   20.7410   25.4241 H     284  UNL284      0.1146
   1137 N           2.0247   20.1826   29.3203 N.3   285  UNL285     -0.3437
   1138 H           2.1624   19.5890   30.1370 H     285  UNL285      0.1146
   1139 H           2.3038   21.1205   29.6044 H     285  UNL285      0.1146
   1140 H           2.7144   19.8802   28.6338 H     285  UNL285      0.1146
   1141 N           2.1085   22.8315    1.0703 N.3   286  UNL286     -0.3437
   1142 H           1.6668   21.9597    0.7818 H     286  UNL286      0.1146
   1143 H           2.8341   22.5716    1.7369 H     286  UNL286      0.1146
   1144 H           2.5960   23.1848    0.2482 H     286  UNL286      0.1146
   1145 N           2.1085   22.8315    3.3590 N.3   287  UNL287     -0.3437
   1146 H           1.6668   21.9597    3.0705 H     287  UNL287      0.1146
   1147 H           2.8341   22.5716    4.0256 H     287  UNL287      0.1146
   1148 H           2.5960   23.1848    2.5369 H     287  UNL287      0.1146
   1149 N           2.1085   22.8315    5.6477 N.3   288  UNL288     -0.3437
   1150 H           1.6668   21.9597    5.3592 H     288  UNL288      0.1146
   1151 H           2.8341   22.5716    6.3143 H     288  UNL288      0.1146
   1152 H           2.5960   23.1848    4.8256 H     288  UNL288      0.1146
   1153 N           2.1085   22.8315    7.9365 N.3   289  UNL289     -0.3437
   1154 H           1.6668   21.9597    7.6479 H     289  UNL289      0.1146
   1155 H           2.8341   22.5716    8.6031 H     289  UNL289      0.1146
   1156 H           2.5960   23.1848    7.1144 H     289  UNL289      0.1146
   1157 N           2.1085   22.6094    9.8918 N.3   290  UNL290     -0.3437
   1158 H           1.6668   22.9000   10.7629 H     290  UNL290      0.1146
   1159 H           2.8341   23.2990    9.7011 H     290  UNL290      0.1146
   1160 H           2.5960   21.7393   10.1007 H     290  UNL290      0.1146
   1161 N           2.3457   22.4182   12.2090 N.3   291  UNL291     -0.3437
   1162 H           1.4012   22.4202   12.5915 H     291  UNL291      0.1146
   1163 H           2.4853   23.3414   11.8007 H     291  UNL291      0.1146
   1164 H           2.9731   22.3677   13.0103 H     291  UNL291      0.1146
   1165 N           2.0720   22.5165   14.5491 N.3   292  UNL292     -0.3437
   1166 H           2.1998   22.1333   15.4846 H     292  UNL292      0.1146
   1167 H           1.9769   23.5240   14.6688 H     292  UNL292      0.1146
   1168 H           2.9566   22.3737   14.0639 H     292  UNL292      0.1146
   1169 N           2.1085   22.8315   17.0913 N.3   293  UNL293     -0.3437
   1170 H           1.6668   21.9597   16.8028 H     293  UNL293      0.1146
   1171 H           2.8341   22.5716   17.7579 H     293  UNL293      0.1146
   1172 H           2.5960   23.1848   16.2692 H     293  UNL293      0.1146
   1173 N           2.1085   22.8315   19.3800 N.3   294  UNL294     -0.3437
   1174 H           1.6668   21.9597   19.0915 H     294  UNL294      0.1146
   1175 H           2.8341   22.5716   20.0466 H     294  UNL294      0.1146
   1176 H           2.5960   23.1848   18.5579 H     294  UNL294      0.1146
   1177 N           2.1085   22.6094   21.3354 N.3   295  UNL295     -0.3437
   1178 H           1.6668   22.9000   22.2065 H     295  UNL295      0.1146
   1179 H           2.8341   23.2990   21.1447 H     295  UNL295      0.1146
   1180 H           2.5960   21.7393   21.5443 H     295  UNL295      0.1146
   1181 N           2.1085   22.4752   24.0016 N.3   296  UNL296     -0.3437
   1182 H           1.6668   22.9992   23.2474 H     296  UNL296      0.1146
   1183 H           2.8341   21.9098   23.5632 H     296  UNL296      0.1146
   1184 H           2.5960   23.1633   24.5736 H     296  UNL296      0.1146
   1185 N           2.2386   22.6094   26.4227 N.3   297  UNL297     -0.3437
   1186 H           3.2008   22.9000   26.2553 H     297  UNL297      0.1146
   1187 H           1.6516   23.2990   25.9555 H     297  UNL297      0.1146
   1188 H           2.1142   21.7393   25.9071 H     297  UNL297      0.1146
   1189 N           2.0247   22.6264   29.3203 N.3   298  UNL298     -0.3437
   1190 H           2.1624   22.0328   30.1370 H     298  UNL298      0.1146
   1191 H           2.3038   23.5643   29.6044 H     298  UNL298      0.1146
   1192 H           2.7144   22.3240   28.6338 H     298  UNL298      0.1146
   1193 N           2.0720   24.9603    0.8168 N.3   299  UNL299     -0.3437
   1194 H           2.1998   24.5771    1.7523 H     299  UNL299      0.1146
   1195 H           1.9769   25.9678    0.9365 H     299  UNL299      0.1146
   1196 H           2.9566   24.8175    0.3316 H     299  UNL299      0.1146
   1197 N           2.3151   25.2686    3.0203 N.3   300  UNL300     -0.3437
   1198 H           1.6936   25.5914    3.7605 H     300  UNL300      0.1146
   1199 H           3.2212   25.1162    3.4608 H     300  UNL300      0.1146
   1200 H           1.9754   24.3465    2.7506 H     300  UNL300      0.1146
   1201 N           2.3151   25.2686    5.3090 N.3   301  UNL301     -0.3437
   1202 H           1.6936   25.5914    6.0492 H     301  UNL301      0.1146
   1203 H           3.2212   25.1162    5.7495 H     301  UNL301      0.1146
   1204 H           1.9754   24.3465    5.0393 H     301  UNL301      0.1146
   1205 N           2.0720   24.9603    7.6830 N.3   302  UNL302     -0.3437
   1206 H           2.1998   24.5771    8.6185 H     302  UNL302      0.1146
   1207 H           1.9769   25.9678    7.8027 H     302  UNL302      0.1146
   1208 H           2.9566   24.8175    7.1977 H     302  UNL302      0.1146
   1209 N           2.1085   24.9191   10.2693 N.3   303  UNL303     -0.3437
   1210 H           1.6668   25.4430    9.5151 H     303  UNL303      0.1146
   1211 H           2.8341   24.3536    9.8309 H     303  UNL303      0.1146
   1212 H           2.5960   25.6071   10.8413 H     303  UNL303      0.1146
   1213 N           2.1085   25.0532   12.1806 N.3   304  UNL304     -0.3437
   1214 H           1.6668   25.3438   13.0517 H     304  UNL304      0.1146
   1215 H           2.8341   25.7428   11.9899 H     304  UNL304      0.1146
   1216 H           2.5960   24.1831   12.3895 H     304  UNL304      0.1146
   1217 N           2.1085   24.9191   14.8467 N.3   305  UNL305     -0.3437
   1218 H           1.6668   25.4430   14.0926 H     305  UNL305      0.1146
   1219 H           2.8341   24.3536   14.4084 H     305  UNL305      0.1146
   1220 H           2.5960   25.6071   15.4188 H     305  UNL305      0.1146
   1221 N           2.2386   25.0532   17.2679 N.3   306  UNL306     -0.3437
   1222 H           3.2008   25.3438   17.1004 H     306  UNL306      0.1146
   1223 H           1.6516   25.7428   16.8007 H     306  UNL306      0.1146
   1224 H           2.1142   24.1831   16.7523 H     306  UNL306      0.1146
   1225 N           2.1085   25.0532   19.0467 N.3   307  UNL307     -0.3437
   1226 H           1.6668   25.3438   19.9178 H     307  UNL307      0.1146
   1227 H           2.8341   25.7428   18.8560 H     307  UNL307      0.1146
   1228 H           2.5960   24.1831   19.2556 H     307  UNL307      0.1146
   1229 N           2.1085   24.9191   21.7128 N.3   308  UNL308     -0.3437
   1230 H           1.6668   25.4430   20.9587 H     308  UNL308      0.1146
   1231 H           2.8341   24.3536   21.2745 H     308  UNL308      0.1146
   1232 H           2.5960   25.6071   22.2849 H     308  UNL308      0.1146
   1233 N           2.1085   25.2753   23.9575 N.3   309  UNL309     -0.3437
   1234 H           1.6668   24.4035   23.6690 H     309  UNL309      0.1146
   1235 H           2.8341   25.0154   24.6241 H     309  UNL309      0.1146
   1236 H           2.5960   25.6286   23.1354 H     309  UNL309      0.1146
   1237 N           2.1085   25.2753   26.2462 N.3   310  UNL310     -0.3437
   1238 H           1.6668   24.4035   25.9577 H     310  UNL310      0.1146
   1239 H           2.8341   25.0154   26.9128 H     310  UNL310      0.1146
   1240 H           2.5960   25.6286   25.4241 H     310  UNL310      0.1146
   1241 N           2.0247   25.0702   29.3203 N.3   311  UNL311     -0.3437
   1242 H           2.1624   24.4766   30.1370 H     311  UNL311      0.1146
   1243 H           2.3038   26.0081   29.6044 H     311  UNL311      0.1146
   1244 H           2.7144   24.7678   28.6338 H     311  UNL311      0.1146
   1245 N           2.1085   27.4970    0.7370 N.3   312  UNL312     -0.3437
   1246 H           1.6668   27.7876    1.6081 H     312  UNL312      0.1146
   1247 H           2.8341   28.1866    0.5463 H     312  UNL312      0.1146
   1248 H           2.5960   26.6269    0.9459 H     312  UNL312      0.1146
   1249 N           2.1085   27.4970    3.0257 N.3   313  UNL313     -0.3437
   1250 H           1.6668   27.7876    3.8968 H     313  UNL313      0.1146
   1251 H           2.8341   28.1866    2.8350 H     313  UNL313      0.1146
   1252 H           2.5960   26.6269    3.2346 H     313  UNL313      0.1146
   1253 N           2.1085   27.4970    5.3144 N.3   314  UNL314     -0.3437
   1254 H           1.6668   27.7876    6.1855 H     314  UNL314      0.1146
   1255 H           2.8341   28.1866    5.1237 H     314  UNL314      0.1146
   1256 H           2.5960   26.6269    5.5233 H     314  UNL314      0.1146
   1257 N           2.1085   27.4970    7.6031 N.3   315  UNL315     -0.3437
   1258 H           1.6668   27.7876    8.4742 H     315  UNL315      0.1146
   1259 H           2.8341   28.1866    7.4124 H     315  UNL315      0.1146
   1260 H           2.5960   26.6269    7.8120 H     315  UNL315      0.1146
   1261 N           2.3151   27.7124    9.8864 N.3   316  UNL316     -0.3437
   1262 H           1.6936   28.0352   10.6266 H     316  UNL316      0.1146
   1263 H           3.2212   27.5600   10.3270 H     316  UNL316      0.1146
   1264 H           1.9754   26.7903    9.6167 H     316  UNL316      0.1146
   1265 N           2.1085   27.4970   12.1806 N.3   317  UNL317     -0.3437
   1266 H           1.6668   27.7876   13.0517 H     317  UNL317      0.1146
   1267 H           2.8341   28.1866   11.9899 H     317  UNL317      0.1146
   1268 H           2.5960   26.6269   12.3895 H     317  UNL317      0.1146
   1269 N           2.1085   27.4970   14.4693 N.3   318  UNL318     -0.3437
   1270 H           1.6668   27.7876   15.3404 H     318  UNL318      0.1146
   1271 H           2.8341   28.1866   14.2786 H     318  UNL318      0.1146
   1272 H           2.5960   26.6269   14.6782 H     318  UNL318      0.1146
   1273 N           2.1085   27.3629   17.1354 N.3   319  UNL319     -0.3437
   1274 H           1.6668   27.8868   16.3813 H     319  UNL319      0.1146
   1275 H           2.8341   26.7974   16.6971 H     319  UNL319      0.1146
   1276 H           2.5960   28.0509   17.7075 H     319  UNL319      0.1146
   1277 N           2.3341   27.5979   18.9846 N.3   320  UNL320     -0.3437
   1278 H           1.4242   27.1839   19.1826 H     320  UNL320      0.1146
   1279 H           2.4211   28.3974   19.6104 H     320  UNL320      0.1146
   1280 H           3.0259   26.9188   19.2986 H     320  UNL320      0.1146
   1281 N           2.1085   27.4970   21.3354 N.3   321  UNL321     -0.3437
   1282 H           1.6668   27.7876   22.2065 H     321  UNL321      0.1146
   1283 H           2.8341   28.1866   21.1447 H     321  UNL321      0.1146
   1284 H           2.5960   26.6269   21.5443 H     321  UNL321      0.1146
   1285 N           2.1085   27.4970   23.6241 N.3   322  UNL322     -0.3437
   1286 H           1.6668   27.7876   24.4952 H     322  UNL322      0.1146
   1287 H           2.8341   28.1866   23.4334 H     322  UNL322      0.1146
   1288 H           2.5960   26.6269   23.8330 H     322  UNL322      0.1146
   1289 N           2.1085   27.4970   25.9128 N.3   323  UNL323     -0.3437
   1290 H           1.6668   27.7876   26.7840 H     323  UNL323      0.1146
   1291 H           2.8341   28.1866   25.7221 H     323  UNL323      0.1146
   1292 H           2.5960   26.6269   26.1217 H     323  UNL323      0.1146
   1293 N           2.0247   27.5140   29.3203 N.3   324  UNL324     -0.3437
   1294 H           2.1624   26.9204   30.1370 H     324  UNL324      0.1146
   1295 H           2.3038   28.4519   29.6044 H     324  UNL324      0.1146
   1296 H           2.7144   27.2116   28.6338 H     324  UNL324      0.1146
   1297 N           2.1085   30.9408    0.7370 N.3   325  UNL325     -0.3437
   1298 H           1.6668   31.2314    1.6081 H     325  UNL325      0.1146
   1299 H           2.8341   31.6304    0.5463 H     325  UNL325      0.1146
   1300 H           2.5960   30.0707    0.9459 H     325  UNL325      0.1146
   1301 N           2.1085   30.9408    3.0257 N.3   326  UNL326     -0.3437
   1302 H           1.6668   31.2314    3.8968 H     326  UNL326      0.1146
   1303 H           2.8341   31.6304    2.8350 H     326  UNL326      0.1146
   1304 H           2.5960   30.0707    3.2346 H     326  UNL326      0.1146
   1305 N           2.1085   30.9408    5.3144 N.3   327  UNL327     -0.3437
   1306 H           1.6668   31.2314    6.1855 H     327  UNL327      0.1146
   1307 H           2.8341   31.6304    5.1237 H     327  UNL327      0.1146
   1308 H           2.5960   30.0707    5.5233 H     327  UNL327      0.1146
   1309 N           2.2983   30.7107    7.6806 N.3   328  UNL328     -0.3437
   1310 H           1.3638   31.0854    7.8375 H     328  UNL328      0.1146
   1311 H           2.8122   31.4367    7.1833 H     328  UNL328      0.1146
   1312 H           2.7310   30.6405    8.6005 H     328  UNL328      0.1146
   1313 N           2.1085   30.9408    9.8918 N.3   329  UNL329     -0.3437
   1314 H           1.6668   31.2314   10.7629 H     329  UNL329      0.1146
   1315 H           2.8341   31.6304    9.7011 H     329  UNL329      0.1146
   1316 H           2.5960   30.0707   10.1007 H     329  UNL329      0.1146
   1317 N           2.1085   30.9408   12.1806 N.3   330  UNL330     -0.3437
   1318 H           1.6668   31.2314   13.0517 H     330  UNL330      0.1146
   1319 H           2.8341   31.6304   11.9899 H     330  UNL330      0.1146
   1320 H           2.5960   30.0707   12.3895 H     330  UNL330      0.1146
   1321 N           2.2983   30.7107   14.5467 N.3   331  UNL331     -0.3437
   1322 H           1.3638   31.0854   14.7036 H     331  UNL331      0.1146
   1323 H           2.8122   31.4367   14.0494 H     331  UNL331      0.1146
   1324 H           2.7310   30.6405   15.4667 H     331  UNL331      0.1146
   1325 N           2.1085   30.9408   16.7580 N.3   332  UNL332     -0.3437
   1326 H           1.6668   31.2314   17.6291 H     332  UNL332      0.1146
   1327 H           2.8341   31.6304   16.5673 H     332  UNL332      0.1146
   1328 H           2.5960   30.0707   16.9669 H     332  UNL332      0.1146
   1329 N           2.1085   30.9408   19.0467 N.3   333  UNL333     -0.3437
   1330 H           1.6668   31.2314   19.9178 H     333  UNL333      0.1146
   1331 H           2.8341   31.6304   18.8560 H     333  UNL333      0.1146
   1332 H           2.5960   30.0707   19.2556 H     333  UNL333      0.1146
   1333 N           2.1085   30.9408   21.3354 N.3   334  UNL334     -0.3437
   1334 H           1.6668   31.2314   22.2065 H     334  UNL334      0.1146
   1335 H           2.8341   31.6304   21.1447 H     334  UNL334      0.1146
   1336 H           2.5960   30.0707   21.5443 H     334  UNL334      0.1146
   1337 N           2.2862   31.1952   23.6576 N.3   335  UNL335     -0.3437
   1338 H           1.4801   31.1453   24.2790 H     335  UNL335      0.1146
   1339 H           3.1049   31.2400   24.2626 H     335  UNL335      0.1146
   1340 H           2.3340   30.2928   23.1867 H     335  UNL335      0.1146
   1341 N           2.1085   30.9408   25.9128 N.3   336  UNL336     -0.3437
   1342 H           1.6668   31.2314   26.7840 H     336  UNL336      0.1146
   1343 H           2.8341   31.6304   25.7221 H     336  UNL336      0.1146
   1344 H           2.5960   30.0707   26.1217 H     336  UNL336      0.1146
   1345 N           2.1085   29.9408   28.2016 N.3   337  UNL337     -0.3437
   1346 H           1.6668   30.2314   29.0727 H     337  UNL337      0.1146
   1347 H           2.8341   30.6304   28.0109 H     337  UNL337      0.1146
   1348 H           2.5960   29.0707   28.4105 H     337  UNL337      0.1146
   1349 N           4.3026    0.6151   -1.2630 N.3   338  UNL338     -0.3437
   1350 H           3.8609    0.9057   -0.3919 H     338  UNL338      0.1146
   1351 H           5.0282    1.3047   -1.4537 H     338  UNL338      0.1146
   1352 H           4.7901   -0.2550   -1.0541 H     338  UNL338      0.1146
   1353 N           4.2811    0.4424    1.2840 N.3   339  UNL339     -0.3437
   1354 H           4.3395    1.1007    2.0596 H     339  UNL339      0.1146
   1355 H           4.1562    1.0071    0.4450 H     339  UNL339      0.1146
   1356 H           5.2051    0.0204    1.2035 H     339  UNL339      0.1146
   1357 N           4.3026    0.8372    3.6477 N.3   340  UNL340     -0.3437
   1358 H           3.8609   -0.0346    3.3592 H     340  UNL340      0.1146
   1359 H           5.0282    0.5773    4.3143 H     340  UNL340      0.1146
   1360 H           4.7901    1.1906    2.8256 H     340  UNL340      0.1146
   1361 N           4.3026    0.8372    5.9365 N.3   341  UNL341     -0.3437
   1362 H           3.8609   -0.0346    5.6479 H     341  UNL341      0.1146
   1363 H           5.0282    0.5773    6.6031 H     341  UNL341      0.1146
   1364 H           4.7901    1.1906    5.1144 H     341  UNL341      0.1146
   1365 N           4.3026    0.8372    8.2252 N.3   342  UNL342     -0.3437
   1366 H           3.8609   -0.0346    7.9367 H     342  UNL342      0.1146
   1367 H           5.0282    0.5773    8.8918 H     342  UNL342      0.1146
   1368 H           4.7901    1.1906    7.4031 H     342  UNL342      0.1146
   1369 N           4.5092    0.8305   12.1751 N.3   343  UNL343     -0.3437
   1370 H           3.8877    1.1534   12.9153 H     343  UNL343      0.1146
   1371 H           5.4154    0.6782   12.6157 H     343  UNL343      0.1146
   1372 H           4.1695   -0.0916   11.9054 H     343  UNL343      0.1146
   1373 N           4.5092    0.8305   14.4638 N.3   344  UNL344     -0.3437
   1374 H           3.8877    1.1534   15.2040 H     344  UNL344      0.1146
   1375 H           5.4154    0.6782   14.9044 H     344  UNL344      0.1146
   1376 H           4.1695   -0.0916   14.1941 H     344  UNL344      0.1146
   1377 N           4.5092    0.8305   16.7525 N.3   345  UNL345     -0.3437
   1378 H           3.8877    1.1534   17.4928 H     345  UNL345      0.1146
   1379 H           5.4154    0.6782   17.1931 H     345  UNL345      0.1146
   1380 H           4.1695   -0.0916   16.4829 H     345  UNL345      0.1146
   1381 N           4.5092    0.8305   19.0413 N.3   346  UNL346     -0.3437
   1382 H           3.8877    1.1534   19.7815 H     346  UNL346      0.1146
   1383 H           5.4154    0.6782   19.4818 H     346  UNL346      0.1146
   1384 H           4.1695   -0.0916   18.7716 H     346  UNL346      0.1146
   1385 N           4.3026    0.6151   21.3354 N.3   347  UNL347     -0.3437
   1386 H           3.8609    0.9057   22.2065 H     347  UNL347      0.1146
   1387 H           5.0282    1.3047   21.1447 H     347  UNL347      0.1146
   1388 H           4.7901   -0.2550   21.5443 H     347  UNL347      0.1146
   1389 N           4.3026    0.4810   24.0016 N.3   348  UNL348     -0.3437
   1390 H           3.8609    1.0050   23.2474 H     348  UNL348      0.1146
   1391 H           5.0282   -0.0845   23.5632 H     348  UNL348      0.1146
   1392 H           4.7901    1.1691   24.5736 H     348  UNL348      0.1146
   1393 N           4.2188    0.6321   29.3203 N.3   349  UNL349     -0.3437
   1394 H           4.3565    0.0386   30.1370 H     349  UNL349      0.1146
   1395 H           4.4979    1.5701   29.6044 H     349  UNL349      0.1146
   1396 H           4.9086    0.3298   28.6338 H     349  UNL349      0.1146
   1397 N           4.3026    3.2810    1.0703 N.3   350  UNL350     -0.3437
   1398 H           3.8609    2.4092    0.7818 H     350  UNL350      0.1146
   1399 H           5.0282    3.0211    1.7369 H     350  UNL350      0.1146
   1400 H           4.7901    3.6344    0.2482 H     350  UNL350      0.1146
   1401 N           4.3026    3.2810    3.3590 N.3   351  UNL351     -0.3437
   1402 H           3.8609    2.4092    3.0705 H     351  UNL351      0.1146
   1403 H           5.0282    3.0211    4.0256 H     351  UNL351      0.1146
   1404 H           4.7901    3.6344    2.5369 H     351  UNL351      0.1146
   1405 N           4.3026    3.2810    5.6477 N.3   352  UNL352     -0.3437
   1406 H           3.8609    2.4092    5.3592 H     352  UNL352      0.1146
   1407 H           5.0282    3.0211    6.3143 H     352  UNL352      0.1146
   1408 H           4.7901    3.6344    4.8256 H     352  UNL352      0.1146
   1409 N           4.3026    3.2810    7.9365 N.3   353  UNL353     -0.3437
   1410 H           3.8609    2.4092    7.6479 H     353  UNL353      0.1146
   1411 H           5.0282    3.0211    8.6031 H     353  UNL353      0.1146
   1412 H           4.7901    3.6344    7.1144 H     353  UNL353      0.1146
   1413 N           4.6329    2.9484    9.8918 N.3   354  UNL354     -0.3437
   1414 H           4.6645    2.4206   10.7629 H     354  UNL354      0.1146
   1415 H           3.6462    3.1170    9.7011 H     354  UNL354      0.1146
   1416 H           5.0383    3.8597   10.1007 H     354  UNL354      0.1146
   1417 N           4.4328    3.0589   12.6904 N.3   355  UNL355     -0.3437
   1418 H           5.3950    3.3495   12.5230 H     355  UNL355      0.1146
   1419 H           3.8457    3.7485   12.2232 H     355  UNL355      0.1146
   1420 H           4.3084    2.1888   12.1749 H     355  UNL355      0.1146
   1421 N           4.4328    3.0589   14.9792 N.3   356  UNL356     -0.3437
   1422 H           5.3950    3.3495   14.8117 H     356  UNL356      0.1146
   1423 H           3.8457    3.7485   14.5120 H     356  UNL356      0.1146
   1424 H           4.3084    2.1888   14.4636 H     356  UNL356      0.1146
   1425 N           4.3026    3.0589   16.7580 N.3   357  UNL357     -0.3437
   1426 H           3.8609    3.3495   17.6291 H     357  UNL357      0.1146
   1427 H           5.0282    3.7485   16.5673 H     357  UNL357      0.1146
   1428 H           4.7901    2.1888   16.9669 H     357  UNL357      0.1146
   1429 N           4.3026    2.9248   19.4241 N.3   358  UNL358     -0.3437
   1430 H           3.8609    3.4488   18.6700 H     358  UNL358      0.1146
   1431 H           5.0282    2.3593   18.9858 H     358  UNL358      0.1146
   1432 H           4.7901    3.6129   19.9962 H     358  UNL358      0.1146
   1433 N           4.3026    3.0589   21.3354 N.3   359  UNL359     -0.3437
   1434 H           3.8609    3.3495   22.2065 H     359  UNL359      0.1146
   1435 H           5.0282    3.7485   21.1447 H     359  UNL359      0.1146
   1436 H           4.7901    2.1888   21.5443 H     359  UNL359      0.1146
   1437 N           4.5092    3.2743   23.6187 N.3   360  UNL360     -0.3437
   1438 H           3.8877    3.5972   24.3589 H     360  UNL360      0.1146
   1439 H           5.4154    3.1220   24.0592 H     360  UNL360      0.1146
   1440 H           4.1695    2.3523   23.3490 H     360  UNL360      0.1146
   1441 N           4.3026    0.9248   26.2903 N.3   361  UNL361     -0.3437
   1442 H           3.8609    1.4488   25.5361 H     361  UNL361      0.1146
   1443 H           5.0282    0.3593   25.8519 H     361  UNL361      0.1146
   1444 H           4.7901    1.6129   26.8623 H     361  UNL361      0.1146
   1445 N           4.2188    3.0759   29.3203 N.3   362  UNL362     -0.3437
   1446 H           4.3565    2.4824   30.1370 H     362  UNL362      0.1146
   1447 H           4.4979    4.0139   29.6044 H     362  UNL362      0.1146
   1448 H           4.9086    2.7736   28.6338 H     362  UNL362      0.1146
   1449 N           4.3026    5.5027    0.7370 N.3   363  UNL363     -0.3437
   1450 H           3.8609    5.7933    1.6081 H     363  UNL363      0.1146
   1451 H           5.0282    6.1923    0.5463 H     363  UNL363      0.1146
   1452 H           4.7901    4.6326    0.9459 H     363  UNL363      0.1146
   1453 N           4.3026    5.5027    3.0257 N.3   364  UNL364     -0.3437
   1454 H           3.8609    5.7933    3.8968 H     364  UNL364      0.1146
   1455 H           5.0282    6.1923    2.8350 H     364  UNL364      0.1146
   1456 H           4.7901    4.6326    3.2346 H     364  UNL364      0.1146
   1457 N           4.3026    5.5027    5.3144 N.3   365  UNL365     -0.3437
   1458 H           3.8609    5.7933    6.1855 H     365  UNL365      0.1146
   1459 H           5.0282    6.1923    5.1237 H     365  UNL365      0.1146
   1460 H           4.7901    4.6326    5.5233 H     365  UNL365      0.1146
   1461 N           4.3026    5.5027    7.6031 N.3   366  UNL366     -0.3437
   1462 H           3.8609    5.7933    8.4742 H     366  UNL366      0.1146
   1463 H           5.0282    6.1923    7.4124 H     366  UNL366      0.1146
   1464 H           4.7901    4.6326    7.8120 H     366  UNL366      0.1146
   1465 N           4.3026    5.5027    9.8918 N.3   367  UNL367     -0.3437
   1466 H           3.8609    5.7933   10.7629 H     367  UNL367      0.1146
   1467 H           5.0282    6.1923    9.7011 H     367  UNL367      0.1146
   1468 H           4.7901    4.6326   10.1007 H     367  UNL367      0.1146
   1469 N           4.3026    5.5027   12.1806 N.3   368  UNL368     -0.3437
   1470 H           3.8609    5.7933   13.0517 H     368  UNL368      0.1146
   1471 H           5.0282    6.1923   11.9899 H     368  UNL368      0.1146
   1472 H           4.7901    4.6326   12.3895 H     368  UNL368      0.1146
   1473 N           4.3026    5.5027   14.4693 N.3   369  UNL369     -0.3437
   1474 H           3.8609    5.7933   15.3404 H     369  UNL369      0.1146
   1475 H           5.0282    6.1923   14.2786 H     369  UNL369      0.1146
   1476 H           4.7901    4.6326   14.6782 H     369  UNL369      0.1146
   1477 N           4.3026    5.3686   17.1354 N.3   370  UNL370     -0.3437
   1478 H           3.8609    5.8926   16.3813 H     370  UNL370      0.1146
   1479 H           5.0282    4.8031   16.6971 H     370  UNL370      0.1146
   1480 H           4.7901    6.0567   17.7075 H     370  UNL370      0.1146
   1481 N           4.3026    5.5027   19.0467 N.3   371  UNL371     -0.3437
   1482 H           3.8609    5.7933   19.9178 H     371  UNL371      0.1146
   1483 H           5.0282    6.1923   18.8560 H     371  UNL371      0.1146
   1484 H           4.7901    4.6326   19.2556 H     371  UNL371      0.1146
   1485 N           4.3026    5.3686   21.7128 N.3   372  UNL372     -0.3437
   1486 H           3.8609    5.8926   20.9587 H     372  UNL372      0.1146
   1487 H           5.0282    4.8031   21.2745 H     372  UNL372      0.1146
   1488 H           4.7901    6.0567   22.2849 H     372  UNL372      0.1146
   1489 N           4.3026    5.7248   23.9575 N.3   373  UNL373     -0.3437
   1490 H           3.8609    4.8530   23.6690 H     373  UNL373      0.1146
   1491 H           5.0282    5.4649   24.6241 H     373  UNL373      0.1146
   1492 H           4.7901    6.0782   23.1354 H     373  UNL373      0.1146
   1493 N           4.5282    3.6036   25.8507 N.3   374  UNL374     -0.3437
   1494 H           3.6184    3.1897   26.0488 H     374  UNL374      0.1146
   1495 H           4.6153    4.4031   26.4765 H     374  UNL374      0.1146
   1496 H           5.2200    2.9246   26.1647 H     374  UNL374      0.1146
   1497 N           4.2188    5.5197   29.3203 N.3   375  UNL375     -0.3437
   1498 H           4.3565    4.9262   30.1370 H     375  UNL375      0.1146
   1499 H           4.4979    6.4577   29.6044 H     375  UNL375      0.1146
   1500 H           4.9086    5.2174   28.6338 H     375  UNL375      0.1146
   1501 N           4.3026    8.1686    1.0703 N.3   376  UNL376     -0.3437
   1502 H           3.8609    7.2968    0.7818 H     376  UNL376      0.1146
   1503 H           5.0282    7.9087    1.7369 H     376  UNL376      0.1146
   1504 H           4.7901    8.5220    0.2482 H     376  UNL376      0.1146
   1505 N           4.3026    8.1686    3.3590 N.3   377  UNL377     -0.3437
   1506 H           3.8609    7.2968    3.0705 H     377  UNL377      0.1146
   1507 H           5.0282    7.9087    4.0256 H     377  UNL377      0.1146
   1508 H           4.7901    8.5220    2.5369 H     377  UNL377      0.1146
   1509 N           4.3026    8.1686    5.6477 N.3   378  UNL378     -0.3437
   1510 H           3.8609    7.2968    5.3592 H     378  UNL378      0.1146
   1511 H           5.0282    7.9087    6.3143 H     378  UNL378      0.1146
   1512 H           4.7901    8.5220    4.8256 H     378  UNL378      0.1146
   1513 N           4.3026    8.1686    7.9365 N.3   379  UNL379     -0.3437
   1514 H           3.8609    7.2968    7.6479 H     379  UNL379      0.1146
   1515 H           5.0282    7.9087    8.6031 H     379  UNL379      0.1146
   1516 H           4.7901    8.5220    7.1144 H     379  UNL379      0.1146
   1517 N           4.3026    8.1686   10.2252 N.3   380  UNL380     -0.3437
   1518 H           3.8609    7.2968    9.9367 H     380  UNL380      0.1146
   1519 H           5.0282    7.9087   10.8918 H     380  UNL380      0.1146
   1520 H           4.7901    8.5220    9.4031 H     380  UNL380      0.1146
   1521 N           4.2662    7.8537   12.2604 N.3   381  UNL381     -0.3437
   1522 H           4.3939    7.4705   13.1959 H     381  UNL381      0.1146
   1523 H           4.1711    8.8612   12.3801 H     381  UNL381      0.1146
   1524 H           5.1507    7.7108   11.7751 H     381  UNL381      0.1146
   1525 N           4.2662    7.8537   14.5491 N.3   382  UNL382     -0.3437
   1526 H           4.3939    7.4705   15.4846 H     382  UNL382      0.1146
   1527 H           4.1711    8.8612   14.6688 H     382  UNL382      0.1146
   1528 H           5.1507    7.7108   14.0639 H     382  UNL382      0.1146
   1529 N           4.3026    8.1686   17.0913 N.3   383  UNL383     -0.3437
   1530 H           3.8609    7.2968   16.8028 H     383  UNL383      0.1146
   1531 H           5.0282    7.9087   17.7579 H     383  UNL383      0.1146
   1532 H           4.7901    8.5220   16.2692 H     383  UNL383      0.1146
   1533 N           4.3026    8.1686   19.3800 N.3   384  UNL384     -0.3437
   1534 H           3.8609    7.2968   19.0915 H     384  UNL384      0.1146
   1535 H           5.0282    7.9087   20.0466 H     384  UNL384      0.1146
   1536 H           4.7901    8.5220   18.5579 H     384  UNL384      0.1146
   1537 N           4.3026    7.9465   21.3354 N.3   385  UNL385     -0.3437
   1538 H           3.8609    8.2371   22.2065 H     385  UNL385      0.1146
   1539 H           5.0282    8.6361   21.1447 H     385  UNL385      0.1146
   1540 H           4.7901    7.0764   21.5443 H     385  UNL385      0.1146
   1541 N           4.5092    8.1620   23.6187 N.3   386  UNL386     -0.3437
   1542 H           3.8877    8.4848   24.3589 H     386  UNL386      0.1146
   1543 H           5.4154    8.0096   24.0592 H     386  UNL386      0.1146
   1544 H           4.1695    7.2399   23.3490 H     386  UNL386      0.1146
   1545 N           4.4943    5.8590   25.8629 N.3   387  UNL387     -0.3437
   1546 H           3.9422    6.7127   25.9325 H     387  UNL387      0.1146
   1547 H           5.4302    6.1030   26.1838 H     387  UNL387      0.1146
   1548 H           4.1152    5.2216   26.5616 H     387  UNL387      0.1146
   1549 N           4.2188    7.9635   29.3203 N.3   388  UNL388     -0.3437
   1550 H           4.3565    7.3700   30.1370 H     388  UNL388      0.1146
   1551 H           4.4979    8.9015   29.6044 H     388  UNL388      0.1146
   1552 H           4.9086    7.6612   28.6338 H     388  UNL388      0.1146
   1553 N           4.3026   10.6125    1.0703 N.3   389  UNL389     -0.3437
   1554 H           3.8609    9.7407    0.7818 H     389  UNL389      0.1146
   1555 H           5.0282   10.3525    1.7369 H     389  UNL389      0.1146
   1556 H           4.7901   10.9658    0.2482 H     389  UNL389      0.1146
   1557 N           4.3026   10.3903    3.0257 N.3   390  UNL390     -0.3437
   1558 H           3.8609   10.6809    3.8968 H     390  UNL390      0.1146
   1559 H           5.0282   11.0799    2.8350 H     390  UNL390      0.1146
   1560 H           4.7901    9.5202    3.2346 H     390  UNL390      0.1146
   1561 N           4.2662   10.2975    5.3942 N.3   391  UNL391     -0.3437
   1562 H           4.3939    9.9143    6.3298 H     391  UNL391      0.1146
   1563 H           4.1711   11.3050    5.5140 H     391  UNL391      0.1146
   1564 H           5.1507   10.1547    4.9090 H     391  UNL391      0.1146
   1565 N           4.3026   10.6125    7.9365 N.3   392  UNL392     -0.3437
   1566 H           3.8609    9.7407    7.6479 H     392  UNL392      0.1146
   1567 H           5.0282   10.3525    8.6031 H     392  UNL392      0.1146
   1568 H           4.7901   10.9658    7.1144 H     392  UNL392      0.1146
   1569 N           4.3026   10.6125   10.2252 N.3   393  UNL393     -0.3437
   1570 H           3.8609    9.7407    9.9367 H     393  UNL393      0.1146
   1571 H           5.0282   10.3525   10.8918 H     393  UNL393      0.1146
   1572 H           4.7901   10.9658    9.4031 H     393  UNL393      0.1146
   1573 N           4.3026   10.3903   12.1806 N.3   394  UNL394     -0.3437
   1574 H           3.8609   10.6809   13.0517 H     394  UNL394      0.1146
   1575 H           5.0282   11.0799   11.9899 H     394  UNL394      0.1146
   1576 H           4.7901    9.5202   12.3895 H     394  UNL394      0.1146
   1577 N           4.3026   10.2562   14.8467 N.3   395  UNL395     -0.3437
   1578 H           3.8609   10.7802   14.0926 H     395  UNL395      0.1146
   1579 H           5.0282    9.6907   14.4084 H     395  UNL395      0.1146
   1580 H           4.7901   10.9443   15.4188 H     395  UNL395      0.1146
   1581 N           4.4328   10.3903   17.2679 N.3   396  UNL396     -0.3437
   1582 H           5.3950   10.6809   17.1004 H     396  UNL396      0.1146
   1583 H           3.8457   11.0799   16.8007 H     396  UNL396      0.1146
   1584 H           4.3084    9.5202   16.7523 H     396  UNL396      0.1146
   1585 N           4.3026   10.6125   19.3800 N.3   397  UNL397     -0.3437
   1586 H           3.8609    9.7407   19.0915 H     397  UNL397      0.1146
   1587 H           5.0282   10.3525   20.0466 H     397  UNL397      0.1146
   1588 H           4.7901   10.9658   18.5579 H     397  UNL397      0.1146
   1589 N           4.3026   10.6125   21.6687 N.3   398  UNL398     -0.3437
   1590 H           3.8609    9.7407   21.3802 H     398  UNL398      0.1146
   1591 H           5.0282   10.3525   22.3353 H     398  UNL398      0.1146
   1592 H           4.7901   10.9658   20.8466 H     398  UNL398      0.1146
   1593 N           4.3026   10.3903   23.6241 N.3   399  UNL399     -0.3437
   1594 H           3.8609   10.6809   24.4952 H     399  UNL399      0.1146
   1595 H           5.0282   11.0799   23.4334 H     399  UNL399      0.1146
   1596 H           4.7901    9.5202   23.8330 H     399  UNL399      0.1146
   1597 N           4.3026    8.2562   26.2903 N.3   400  UNL400     -0.3437
   1598 H           3.8609    8.7802   25.5361 H     400  UNL400      0.1146
   1599 H           5.0282    7.6907   25.8519 H     400  UNL400      0.1146
   1600 H           4.7901    8.9443   26.8623 H     400  UNL400      0.1146
   1601 N           4.2188   10.4074   29.3203 N.3   401  UNL401     -0.3437
   1602 H           4.3565    9.8138   30.1370 H     401  UNL401      0.1146
   1603 H           4.4979   11.3453   29.6044 H     401  UNL401      0.1146
   1604 H           4.9086   10.1050   28.6338 H     401  UNL401      0.1146
   1605 N           4.5092   13.0496    0.7315 N.3   402  UNL402     -0.3437
   1606 H           3.8877   13.3724    1.4717 H     402  UNL402      0.1146
   1607 H           5.4154   12.8972    1.1721 H     402  UNL402      0.1146
   1608 H           4.1695   12.1275    0.4619 H     402  UNL402      0.1146
   1609 N           4.5092   13.0496    3.0203 N.3   403  UNL403     -0.3437
   1610 H           3.8877   13.3724    3.7605 H     403  UNL403      0.1146
   1611 H           5.4154   12.8972    3.4608 H     403  UNL403      0.1146
   1612 H           4.1695   12.1275    2.7506 H     403  UNL403      0.1146
   1613 N           4.5092   13.0496    5.3090 N.3   404  UNL404     -0.3437
   1614 H           3.8877   13.3724    6.0492 H     404  UNL404      0.1146
   1615 H           5.4154   12.8972    5.7495 H     404  UNL404      0.1146
   1616 H           4.1695   12.1275    5.0393 H     404  UNL404      0.1146
   1617 N           4.5092   13.0496    7.5977 N.3   405  UNL405     -0.3437
   1618 H           3.8877   13.3724    8.3379 H     405  UNL405      0.1146
   1619 H           5.4154   12.8972    8.0382 H     405  UNL405      0.1146
   1620 H           4.1695   12.1275    7.3280 H     405  UNL405      0.1146
   1621 N           4.5092   13.0496    9.8864 N.3   406  UNL406     -0.3437
   1622 H           3.8877   13.3724   10.6266 H     406  UNL406      0.1146
   1623 H           5.4154   12.8972   10.3270 H     406  UNL406      0.1146
   1624 H           4.1695   12.1275    9.6167 H     406  UNL406      0.1146
   1625 N           4.5092   13.0496   12.1751 N.3   407  UNL407     -0.3437
   1626 H           3.8877   13.3724   12.9153 H     407  UNL407      0.1146
   1627 H           5.4154   12.8972   12.6157 H     407  UNL407      0.1146
   1628 H           4.1695   12.1275   11.9054 H     407  UNL407      0.1146
   1629 N           4.5092   13.0496   14.4638 N.3   408  UNL408     -0.3437
   1630 H           3.8877   13.3724   15.2040 H     408  UNL408      0.1146
   1631 H           5.4154   12.8972   14.9044 H     408  UNL408      0.1146
   1632 H           4.1695   12.1275   14.1941 H     408  UNL408      0.1146
   1633 N           4.5092   13.0496   16.7525 N.3   409  UNL409     -0.3437
   1634 H           3.8877   13.3724   17.4928 H     409  UNL409      0.1146
   1635 H           5.4154   12.8972   17.1931 H     409  UNL409      0.1146
   1636 H           4.1695   12.1275   16.4829 H     409  UNL409      0.1146
   1637 N           4.5092   13.0496   19.0413 N.3   410  UNL410     -0.3437
   1638 H           3.8877   13.3724   19.7815 H     410  UNL410      0.1146
   1639 H           5.4154   12.8972   19.4818 H     410  UNL410      0.1146
   1640 H           4.1695   12.1275   18.7716 H     410  UNL410      0.1146
   1641 N           4.3026   12.8341   21.3354 N.3   411  UNL411     -0.3437
   1642 H           3.8609   13.1247   22.2065 H     411  UNL411      0.1146
   1643 H           5.0282   13.5237   21.1447 H     411  UNL411      0.1146
   1644 H           4.7901   11.9640   21.5443 H     411  UNL411      0.1146
   1645 N           4.3026   12.7000   24.0016 N.3   412  UNL412     -0.3437
   1646 H           3.8609   13.2240   23.2474 H     412  UNL412      0.1146
   1647 H           5.0282   12.1345   23.5632 H     412  UNL412      0.1146
   1648 H           4.7901   13.3881   24.5736 H     412  UNL412      0.1146
   1649 N           4.3026   11.0563   26.2462 N.3   413  UNL413     -0.3437
   1650 H           3.8609   10.1845   25.9577 H     413  UNL413      0.1146
   1651 H           5.0282   10.7963   26.9128 H     413  UNL413      0.1146
   1652 H           4.7901   11.4096   25.4241 H     413  UNL413      0.1146
   1653 N           4.2188   12.8512   29.3203 N.3   414  UNL414     -0.3437
   1654 H           4.3565   12.2576   30.1370 H     414  UNL414      0.1146
   1655 H           4.4979   13.7891   29.6044 H     414  UNL414      0.1146
   1656 H           4.9086   12.5488   28.6338 H     414  UNL414      0.1146
   1657 N           4.3026   15.5001    1.0703 N.3   415  UNL415     -0.3437
   1658 H           3.8609   14.6283    0.7818 H     415  UNL415      0.1146
   1659 H           5.0282   15.2401    1.7369 H     415  UNL415      0.1146
   1660 H           4.7901   15.8534    0.2482 H     415  UNL415      0.1146
   1661 N           4.3026   15.5001    3.3590 N.3   416  UNL416     -0.3437
   1662 H           3.8609   14.6283    3.0705 H     416  UNL416      0.1146
   1663 H           5.0282   15.2401    4.0256 H     416  UNL416      0.1146
   1664 H           4.7901   15.8534    2.5369 H     416  UNL416      0.1146
   1665 N           4.3026   15.5001    5.6477 N.3   417  UNL417     -0.3437
   1666 H           3.8609   14.6283    5.3592 H     417  UNL417      0.1146
   1667 H           5.0282   15.2401    6.3143 H     417  UNL417      0.1146
   1668 H           4.7901   15.8534    4.8256 H     417  UNL417      0.1146
   1669 N           4.3026   15.5001    7.9365 N.3   418  UNL418     -0.3437
   1670 H           3.8609   14.6283    7.6479 H     418  UNL418      0.1146
   1671 H           5.0282   15.2401    8.6031 H     418  UNL418      0.1146
   1672 H           4.7901   15.8534    7.1144 H     418  UNL418      0.1146
   1673 N           4.3026   15.5001   10.2252 N.3   419  UNL419     -0.3437
   1674 H           3.8609   14.6283    9.9367 H     419  UNL419      0.1146
   1675 H           5.0282   15.2401   10.8918 H     419  UNL419      0.1146
   1676 H           4.7901   15.8534    9.4031 H     419  UNL419      0.1146
   1677 N           4.3026   15.5001   12.5139 N.3   420  UNL420     -0.3437
   1678 H           3.8609   14.6283   12.2254 H     420  UNL420      0.1146
   1679 H           5.0282   15.2401   13.1805 H     420  UNL420      0.1146
   1680 H           4.7901   15.8534   11.6918 H     420  UNL420      0.1146
   1681 N           4.3026   15.5001   14.8026 N.3   421  UNL421     -0.3437
   1682 H           3.8609   14.6283   14.5141 H     421  UNL421      0.1146
   1683 H           5.0282   15.2401   15.4692 H     421  UNL421      0.1146
   1684 H           4.7901   15.8534   13.9805 H     421  UNL421      0.1146
   1685 N           4.3026   15.5001   17.0913 N.3   422  UNL422     -0.3437
   1686 H           3.8609   14.6283   16.8028 H     422  UNL422      0.1146
   1687 H           5.0282   15.2401   17.7579 H     422  UNL422      0.1146
   1688 H           4.7901   15.8534   16.2692 H     422  UNL422      0.1146
   1689 N           4.3026   15.5001   19.3800 N.3   423  UNL423     -0.3437
   1690 H           3.8609   14.6283   19.0915 H     423  UNL423      0.1146
   1691 H           5.0282   15.2401   20.0466 H     423  UNL423      0.1146
   1692 H           4.7901   15.8534   18.5579 H     423  UNL423      0.1146
   1693 N           4.2662   15.1851   21.4152 N.3   424  UNL424     -0.3437
   1694 H           4.3939   14.8019   22.3508 H     424  UNL424      0.1146
   1695 H           4.1711   16.1926   21.5350 H     424  UNL424      0.1146
   1696 H           5.1507   15.0423   20.9300 H     424  UNL424      0.1146
   1697 N           4.3026   15.5001   23.9575 N.3   425  UNL425     -0.3437
   1698 H           3.8609   14.6283   23.6690 H     425  UNL425      0.1146
   1699 H           5.0282   15.2401   24.6241 H     425  UNL425      0.1146
   1700 H           4.7901   15.8534   23.1354 H     425  UNL425      0.1146
   1701 N           4.4328   13.2779   26.4227 N.3   426  UNL426     -0.3437
   1702 H           5.3950   13.5685   26.2553 H     426  UNL426      0.1146
   1703 H           3.8457   13.9675   25.9555 H     426  UNL426      0.1146
   1704 H           4.3084   12.4078   25.9071 H     426  UNL426      0.1146
   1705 N           4.2188   15.2950   29.3203 N.3   427  UNL427     -0.3437
   1706 H           4.3565   14.7014   30.1370 H     427  UNL427      0.1146
   1707 H           4.4979   16.2329   29.6044 H     427  UNL427      0.1146
   1708 H           4.9086   14.9926   28.6338 H     427  UNL427      0.1146
   1709 N           4.3026   17.7217    0.7370 N.3   428  UNL428     -0.3437
   1710 H           3.8609   18.0123    1.6081 H     428  UNL428      0.1146
   1711 H           5.0282   18.4114    0.5463 H     428  UNL428      0.1146
   1712 H           4.7901   16.8517    0.9459 H     428  UNL428      0.1146
   1713 N           4.3026   17.7217    3.0257 N.3   429  UNL429     -0.3437
   1714 H           3.8609   18.0123    3.8968 H     429  UNL429      0.1146
   1715 H           5.0282   18.4114    2.8350 H     429  UNL429      0.1146
   1716 H           4.7901   16.8517    3.2346 H     429  UNL429      0.1146
   1717 N           4.3026   17.7217    5.3144 N.3   430  UNL430     -0.3437
   1718 H           3.8609   18.0123    6.1855 H     430  UNL430      0.1146
   1719 H           5.0282   18.4114    5.1237 H     430  UNL430      0.1146
   1720 H           4.7901   16.8517    5.5233 H     430  UNL430      0.1146
   1721 N           4.3026   17.7217    7.6031 N.3   431  UNL431     -0.3437
   1722 H           3.8609   18.0123    8.4742 H     431  UNL431      0.1146
   1723 H           5.0282   18.4114    7.4124 H     431  UNL431      0.1146
   1724 H           4.7901   16.8517    7.8120 H     431  UNL431      0.1146
   1725 N           4.3026   17.7217    9.8918 N.3   432  UNL432     -0.3437
   1726 H           3.8609   18.0123   10.7629 H     432  UNL432      0.1146
   1727 H           5.0282   18.4114    9.7011 H     432  UNL432      0.1146
   1728 H           4.7901   16.8517   10.1007 H     432  UNL432      0.1146
   1729 N           4.3026   17.7217   12.1806 N.3   433  UNL433     -0.3437
   1730 H           3.8609   18.0123   13.0517 H     433  UNL433      0.1146
   1731 H           5.0282   18.4114   11.9899 H     433  UNL433      0.1146
   1732 H           4.7901   16.8517   12.3895 H     433  UNL433      0.1146
   1733 N           4.3026   17.7217   14.4693 N.3   434  UNL434     -0.3437
   1734 H           3.8609   18.0123   15.3404 H     434  UNL434      0.1146
   1735 H           5.0282   18.4114   14.2786 H     434  UNL434      0.1146
   1736 H           4.7901   16.8517   14.6782 H     434  UNL434      0.1146
   1737 N           4.3026   17.7217   16.7580 N.3   435  UNL435     -0.3437
   1738 H           3.8609   18.0123   17.6291 H     435  UNL435      0.1146
   1739 H           5.0282   18.4114   16.5673 H     435  UNL435      0.1146
   1740 H           4.7901   16.8517   16.9669 H     435  UNL435      0.1146
   1741 N           4.3026   17.7217   19.0467 N.3   436  UNL436     -0.3437
   1742 H           3.8609   18.0123   19.9178 H     436  UNL436      0.1146
   1743 H           5.0282   18.4114   18.8560 H     436  UNL436      0.1146
   1744 H           4.7901   16.8517   19.2556 H     436  UNL436      0.1146
   1745 N           4.3026   17.7217   21.3354 N.3   437  UNL437     -0.3437
   1746 H           3.8609   18.0123   22.2065 H     437  UNL437      0.1146
   1747 H           5.0282   18.4114   21.1447 H     437  UNL437      0.1146
   1748 H           4.7901   16.8517   21.5443 H     437  UNL437      0.1146
   1749 N           4.3026   17.7217   23.6241 N.3   438  UNL438     -0.3437
   1750 H           3.8609   18.0123   24.4952 H     438  UNL438      0.1146
   1751 H           5.0282   18.4114   23.4334 H     438  UNL438      0.1146
   1752 H           4.7901   16.8517   23.8330 H     438  UNL438      0.1146
   1753 N           4.3026   15.5876   26.2903 N.3   439  UNL439     -0.3437
   1754 H           3.8609   16.1116   25.5361 H     439  UNL439      0.1146
   1755 H           5.0282   15.0222   25.8519 H     439  UNL439      0.1146
   1756 H           4.7901   16.2757   26.8623 H     439  UNL439      0.1146
   1757 N           4.2188   17.7388   29.3203 N.3   440  UNL440     -0.3437
   1758 H           4.3565   17.1452   30.1370 H     440  UNL440      0.1146
   1759 H           4.4979   18.6767   29.6044 H     440  UNL440      0.1146
   1760 H           4.9086   17.4364   28.6338 H     440  UNL440      0.1146
   1761 N           4.3026   20.3877    1.0703 N.3   441  UNL441     -0.3437
   1762 H           3.8609   19.5159    0.7818 H     441  UNL441      0.1146
   1763 H           5.0282   20.1278    1.7369 H     441  UNL441      0.1146
   1764 H           4.7901   20.7410    0.2482 H     441  UNL441      0.1146
   1765 N           4.3026   20.1656    3.0257 N.3   442  UNL442     -0.3437
   1766 H           3.8609   20.4562    3.8968 H     442  UNL442      0.1146
   1767 H           5.0282   20.8552    2.8350 H     442  UNL442      0.1146
   1768 H           4.7901   19.2955    3.2346 H     442  UNL442      0.1146
   1769 N           4.3026   20.0314    5.6918 N.3   443  UNL443     -0.3437
   1770 H           3.8609   20.5554    4.9377 H     443  UNL443      0.1146
   1771 H           5.0282   19.4660    5.2535 H     443  UNL443      0.1146
   1772 H           4.7901   20.7195    6.2639 H     443  UNL443      0.1146
   1773 N           4.3026   20.3877    7.9365 N.3   444  UNL444     -0.3437
   1774 H           3.8609   19.5159    7.6479 H     444  UNL444      0.1146
   1775 H           5.0282   20.1278    8.6031 H     444  UNL444      0.1146
   1776 H           4.7901   20.7410    7.1144 H     444  UNL444      0.1146
   1777 N           4.3026   20.1656    9.8918 N.3   445  UNL445     -0.3437
   1778 H           3.8609   20.4562   10.7629 H     445  UNL445      0.1146
   1779 H           5.0282   20.8552    9.7011 H     445  UNL445      0.1146
   1780 H           4.7901   19.2955   10.1007 H     445  UNL445      0.1146
   1781 N           4.3026   20.0314   12.5580 N.3   446  UNL446     -0.3437
   1782 H           3.8609   20.5554   11.8039 H     446  UNL446      0.1146
   1783 H           5.0282   19.4660   12.1196 H     446  UNL446      0.1146
   1784 H           4.7901   20.7195   13.1301 H     446  UNL446      0.1146
   1785 N           4.3026   20.3877   14.8026 N.3   447  UNL447     -0.3437
   1786 H           3.8609   19.5159   14.5141 H     447  UNL447      0.1146
   1787 H           5.0282   20.1278   15.4692 H     447  UNL447      0.1146
   1788 H           4.7901   20.7410   13.9805 H     447  UNL447      0.1146
   1789 N           4.3026   20.3877   17.0913 N.3   448  UNL448     -0.3437
   1790 H           3.8609   19.5159   16.8028 H     448  UNL448      0.1146
   1791 H           5.0282   20.1278   17.7579 H     448  UNL448      0.1146
   1792 H           4.7901   20.7410   16.2692 H     448  UNL448      0.1146
   1793 N           4.3026   20.3877   19.3800 N.3   449  UNL449     -0.3437
   1794 H           3.8609   19.5159   19.0915 H     449  UNL449      0.1146
   1795 H           5.0282   20.1278   20.0466 H     449  UNL449      0.1146
   1796 H           4.7901   20.7410   18.5579 H     449  UNL449      0.1146
   1797 N           4.3026   20.1656   21.3354 N.3   450  UNL450     -0.3437
   1798 H           3.8609   20.4562   22.2065 H     450  UNL450      0.1146
   1799 H           5.0282   20.8552   21.1447 H     450  UNL450      0.1146
   1800 H           4.7901   19.2955   21.5443 H     450  UNL450      0.1146
   1801 N           4.3026   20.0314   24.0016 N.3   451  UNL451     -0.3437
   1802 H           3.8609   20.5554   23.2474 H     451  UNL451      0.1146
   1803 H           5.0282   19.4660   23.5632 H     451  UNL451      0.1146
   1804 H           4.7901   20.7195   24.5736 H     451  UNL451      0.1146
   1805 N           4.2067   18.1728   26.0756 N.3   452  UNL452     -0.3437
   1806 H           4.4729   19.0912   26.4278 H     452  UNL452      0.1146
   1807 H           4.7907   18.0057   25.2574 H     452  UNL452      0.1146
   1808 H           4.5117   17.5026   26.7799 H     452  UNL452      0.1146
   1809 N           4.2188   20.1826   29.3203 N.3   453  UNL453     -0.3437
   1810 H           4.3565   19.5890   30.1370 H     453  UNL453      0.1146
   1811 H           4.4979   21.1205   29.6044 H     453  UNL453      0.1146
   1812 H           4.9086   19.8802   28.6338 H     453  UNL453      0.1146
   1813 N           4.3026   22.8315    1.0703 N.3   454  UNL454     -0.3437
   1814 H           3.8609   21.9597    0.7818 H     454  UNL454      0.1146
   1815 H           5.0282   22.5716    1.7369 H     454  UNL454      0.1146
   1816 H           4.7901   23.1848    0.2482 H     454  UNL454      0.1146
   1817 N           4.2662   22.5165    3.1055 N.3   455  UNL455     -0.3437
   1818 H           4.3939   22.1333    4.0410 H     455  UNL455      0.1146
   1819 H           4.1711   23.5240    3.2252 H     455  UNL455      0.1146
   1820 H           5.1507   22.3737    2.6203 H     455  UNL455      0.1146
   1821 N           4.2662   22.5165    5.3942 N.3   456  UNL456     -0.3437
   1822 H           4.3939   22.1333    6.3298 H     456  UNL456      0.1146
   1823 H           4.1711   23.5240    5.5140 H     456  UNL456      0.1146
   1824 H           5.1507   22.3737    4.9090 H     456  UNL456      0.1146
   1825 N           4.3026   22.8315    7.9365 N.3   457  UNL457     -0.3437
   1826 H           3.8609   21.9597    7.6479 H     457  UNL457      0.1146
   1827 H           5.0282   22.5716    8.6031 H     457  UNL457      0.1146
   1828 H           4.7901   23.1848    7.1144 H     457  UNL457      0.1146
   1829 N           4.5282   22.7103    9.8297 N.3   458  UNL458     -0.3437
   1830 H           3.6184   22.2963   10.0278 H     458  UNL458      0.1146
   1831 H           4.6153   23.5098   10.4555 H     458  UNL458      0.1146
   1832 H           5.2200   22.0312   10.1437 H     458  UNL458      0.1146
   1833 N           4.5092   22.8248   12.1751 N.3   459  UNL459     -0.3437
   1834 H           3.8877   23.1476   12.9153 H     459  UNL459      0.1146
   1835 H           5.4154   22.6724   12.6157 H     459  UNL459      0.1146
   1836 H           4.1695   21.9027   11.9054 H     459  UNL459      0.1146
   1837 N           4.3026   22.6094   14.4693 N.3   460  UNL460     -0.3437
   1838 H           3.8609   22.9000   15.3404 H     460  UNL460      0.1146
   1839 H           5.0282   23.2990   14.2786 H     460  UNL460      0.1146
   1840 H           4.7901   21.7393   14.6782 H     460  UNL460      0.1146
   1841 N           4.3026   22.8315   17.0913 N.3   461  UNL461     -0.3437
   1842 H           3.8609   21.9597   16.8028 H     461  UNL461      0.1146
   1843 H           5.0282   22.5716   17.7579 H     461  UNL461      0.1146
   1844 H           4.7901   23.1848   16.2692 H     461  UNL461      0.1146
   1845 N           4.3026   22.8315   19.3800 N.3   462  UNL462     -0.3437
   1846 H           3.8609   21.9597   19.0915 H     462  UNL462      0.1146
   1847 H           5.0282   22.5716   20.0466 H     462  UNL462      0.1146
   1848 H           4.7901   23.1848   18.5579 H     462  UNL462      0.1146
   1849 N           4.3026   22.8315   21.6687 N.3   463  UNL463     -0.3437
   1850 H           3.8609   21.9597   21.3802 H     463  UNL463      0.1146
   1851 H           5.0282   22.5716   22.3353 H     463  UNL463      0.1146
   1852 H           4.7901   23.1848   20.8466 H     463  UNL463      0.1146
   1853 N           4.3026   22.8315   23.9575 N.3   464  UNL464     -0.3437
   1854 H           3.8609   21.9597   23.6690 H     464  UNL464      0.1146
   1855 H           5.0282   22.5716   24.6241 H     464  UNL464      0.1146
   1856 H           4.7901   23.1848   23.1354 H     464  UNL464      0.1146
   1857 N           4.2811   20.4366   26.1711 N.3   465  UNL465     -0.3437
   1858 H           4.3395   21.0949   26.9468 H     465  UNL465      0.1146
   1859 H           4.1562   21.0014   25.3322 H     465  UNL465      0.1146
   1860 H           5.2051   20.0147   26.0906 H     465  UNL465      0.1146
   1861 N           4.2188   22.6264   29.3203 N.3   466  UNL466     -0.3437
   1862 H           4.3565   22.0328   30.1370 H     466  UNL466      0.1146
   1863 H           4.4979   23.5643   29.6044 H     466  UNL466      0.1146
   1864 H           4.9086   22.3240   28.6338 H     466  UNL466      0.1146
   1865 N           4.3026   25.0532    0.7370 N.3   467  UNL467     -0.3437
   1866 H           3.8609   25.3438    1.6081 H     467  UNL467      0.1146
   1867 H           5.0282   25.7428    0.5463 H     467  UNL467      0.1146
   1868 H           4.7901   24.1831    0.9459 H     467  UNL467      0.1146
   1869 N           4.5398   24.8620    3.0541 N.3   468  UNL468     -0.3437
   1870 H           3.5953   24.8640    3.4367 H     468  UNL468      0.1146
   1871 H           4.6794   25.7852    2.6459 H     468  UNL468      0.1146
   1872 H           5.1673   24.8116    3.8555 H     468  UNL468      0.1146
   1873 N           4.3026   24.9191    5.6918 N.3   469  UNL469     -0.3437
   1874 H           3.8609   25.4430    4.9377 H     469  UNL469      0.1146
   1875 H           5.0282   24.3536    5.2535 H     469  UNL469      0.1146
   1876 H           4.7901   25.6071    6.2639 H     469  UNL469      0.1146
   1877 N           4.4328   25.0532    8.1130 N.3   470  UNL470     -0.3437
   1878 H           5.3950   25.3438    7.9456 H     470  UNL470      0.1146
   1879 H           3.8457   25.7428    7.6458 H     470  UNL470      0.1146
   1880 H           4.3084   24.1831    7.5974 H     470  UNL470      0.1146
   1881 N           4.5092   25.2686    9.8864 N.3   471  UNL471     -0.3437
   1882 H           3.8877   25.5914   10.6266 H     471  UNL471      0.1146
   1883 H           5.4154   25.1162   10.3270 H     471  UNL471      0.1146
   1884 H           4.1695   24.3465    9.6167 H     471  UNL471      0.1146
   1885 N           4.3026   25.0532   12.1806 N.3   472  UNL472     -0.3437
   1886 H           3.8609   25.3438   13.0517 H     472  UNL472      0.1146
   1887 H           5.0282   25.7428   11.9899 H     472  UNL472      0.1146
   1888 H           4.7901   24.1831   12.3895 H     472  UNL472      0.1146
   1889 N           4.5398   24.8620   14.4977 N.3   473  UNL473     -0.3437
   1890 H           3.5953   24.8640   14.8802 H     473  UNL473      0.1146
   1891 H           4.6794   25.7852   14.0894 H     473  UNL473      0.1146
   1892 H           5.1673   24.8116   15.2990 H     473  UNL473      0.1146
   1893 N           4.5092   25.2686   16.7525 N.3   474  UNL474     -0.3437
   1894 H           3.8877   25.5914   17.4928 H     474  UNL474      0.1146
   1895 H           5.4154   25.1162   17.1931 H     474  UNL474      0.1146
   1896 H           4.1695   24.3465   16.4829 H     474  UNL474      0.1146
   1897 N           4.5092   25.2686   19.0413 N.3   475  UNL475     -0.3437
   1898 H           3.8877   25.5914   19.7815 H     475  UNL475      0.1146
   1899 H           5.4154   25.1162   19.4818 H     475  UNL475      0.1146
   1900 H           4.1695   24.3465   18.7716 H     475  UNL475      0.1146
   1901 N           4.2662   24.9603   21.4152 N.3   476  UNL476     -0.3437
   1902 H           4.3939   24.5771   22.3508 H     476  UNL476      0.1146
   1903 H           4.1711   25.9678   21.5350 H     476  UNL476      0.1146
   1904 H           5.1507   24.8175   20.9300 H     476  UNL476      0.1146
   1905 N           4.2662   24.9603   23.7040 N.3   477  UNL477     -0.3437
   1906 H           4.3939   24.5771   24.6395 H     477  UNL477      0.1146
   1907 H           4.1711   25.9678   23.8237 H     477  UNL477      0.1146
   1908 H           5.1507   24.8175   23.2187 H     477  UNL477      0.1146
   1909 N           4.3026   25.2753   26.2462 N.3   478  UNL478     -0.3437
   1910 H           3.8609   24.4035   25.9577 H     478  UNL478      0.1146
   1911 H           5.0282   25.0154   26.9128 H     478  UNL478      0.1146
   1912 H           4.7901   25.6286   25.4241 H     478  UNL478      0.1146
   1913 N           4.2188   25.0702   29.3203 N.3   479  UNL479     -0.3437
   1914 H           4.3565   24.4766   30.1370 H     479  UNL479      0.1146
   1915 H           4.4979   26.0081   29.6044 H     479  UNL479      0.1146
   1916 H           4.9086   24.7678   28.6338 H     479  UNL479      0.1146
   1917 N           4.3026   27.3629    1.1144 N.3   480  UNL480     -0.3437
   1918 H           3.8609   27.8868    0.3603 H     480  UNL480      0.1146
   1919 H           5.0282   26.7974    0.6761 H     480  UNL480      0.1146
   1920 H           4.7901   28.0509    1.6865 H     480  UNL480      0.1146
   1921 N           4.3026   27.7191    3.3590 N.3   481  UNL481     -0.3437
   1922 H           3.8609   26.8473    3.0705 H     481  UNL481      0.1146
   1923 H           5.0282   27.4592    4.0256 H     481  UNL481      0.1146
   1924 H           4.7901   28.0724    2.5369 H     481  UNL481      0.1146
   1925 N           4.3026   27.7191    5.6477 N.3   482  UNL482     -0.3437
   1926 H           3.8609   26.8473    5.3592 H     482  UNL482      0.1146
   1927 H           5.0282   27.4592    6.3143 H     482  UNL482      0.1146
   1928 H           4.7901   28.0724    4.8256 H     482  UNL482      0.1146
   1929 N           4.3026   27.7191    7.9365 N.3   483  UNL483     -0.3437
   1930 H           3.8609   26.8473    7.6479 H     483  UNL483      0.1146
   1931 H           5.0282   27.4592    8.6031 H     483  UNL483      0.1146
   1932 H           4.7901   28.0724    7.1144 H     483  UNL483      0.1146
   1933 N           4.3026   27.4970    9.8918 N.3   484  UNL484     -0.3437
   1934 H           3.8609   27.7876   10.7629 H     484  UNL484      0.1146
   1935 H           5.0282   28.1866    9.7011 H     484  UNL484      0.1146
   1936 H           4.7901   26.6269   10.1007 H     484  UNL484      0.1146
   1937 N           4.5398   27.3058   12.2090 N.3   485  UNL485     -0.3437
   1938 H           3.5953   27.3078   12.5915 H     485  UNL485      0.1146
   1939 H           4.6794   28.2290   11.8007 H     485  UNL485      0.1146
   1940 H           5.1673   27.2554   13.0103 H     485  UNL485      0.1146
   1941 N           4.2188   27.5140   14.5880 N.3   486  UNL486     -0.3437
   1942 H           4.3565   26.9204   15.4047 H     486  UNL486      0.1146
   1943 H           4.4979   28.4519   14.8721 H     486  UNL486      0.1146
   1944 H           4.9086   27.2116   13.9015 H     486  UNL486      0.1146
   1945 N           4.5092   27.7124   16.7525 N.3   487  UNL487     -0.3437
   1946 H           3.8877   28.0352   17.4928 H     487  UNL487      0.1146
   1947 H           5.4154   27.5600   17.1931 H     487  UNL487      0.1146
   1948 H           4.1695   26.7903   16.4829 H     487  UNL487      0.1146
   1949 N           4.3026   27.4970   19.0467 N.3   488  UNL488     -0.3437
   1950 H           3.8609   27.7876   19.9178 H     488  UNL488      0.1146
   1951 H           5.0282   28.1866   18.8560 H     488  UNL488      0.1146
   1952 H           4.7901   26.6269   19.2556 H     488  UNL488      0.1146
   1953 N           4.3026   27.4970   21.3354 N.3   489  UNL489     -0.3437
   1954 H           3.8609   27.7876   22.2065 H     489  UNL489      0.1146
   1955 H           5.0282   28.1866   21.1447 H     489  UNL489      0.1146
   1956 H           4.7901   26.6269   21.5443 H     489  UNL489      0.1146
   1957 N           4.3026   27.4970   23.6241 N.3   490  UNL490     -0.3437
   1958 H           3.8609   27.7876   24.4952 H     490  UNL490      0.1146
   1959 H           5.0282   28.1866   23.4334 H     490  UNL490      0.1146
   1960 H           4.7901   26.6269   23.8330 H     490  UNL490      0.1146
   1961 N           4.3026   27.4970   25.9128 N.3   491  UNL491     -0.3437
   1962 H           3.8609   27.7876   26.7840 H     491  UNL491      0.1146
   1963 H           5.0282   28.1866   25.7221 H     491  UNL491      0.1146
   1964 H           4.7901   26.6269   26.1217 H     491  UNL491      0.1146
   1965 N           4.2188   27.5140   29.3203 N.3   492  UNL492     -0.3437
   1966 H           4.3565   26.9204   30.1370 H     492  UNL492      0.1146
   1967 H           4.4979   28.4519   29.6044 H     492  UNL492      0.1146
   1968 H           4.9086   27.2116   28.6338 H     492  UNL492      0.1146
   1969 N           4.3026   30.9408    0.7370 N.3   493  UNL493     -0.3437
   1970 H           3.8609   31.2314    1.6081 H     493  UNL493      0.1146
   1971 H           5.0282   31.6304    0.5463 H     493  UNL493      0.1146
   1972 H           4.7901   30.0707    0.9459 H     493  UNL493      0.1146
   1973 N           4.3026   30.9408    3.0257 N.3   494  UNL494     -0.3437
   1974 H           3.8609   31.2314    3.8968 H     494  UNL494      0.1146
   1975 H           5.0282   31.6304    2.8350 H     494  UNL494      0.1146
   1976 H           4.7901   30.0707    3.2346 H     494  UNL494      0.1146
   1977 N           4.3026   30.9408    5.3144 N.3   495  UNL495     -0.3437
   1978 H           3.8609   31.2314    6.1855 H     495  UNL495      0.1146
   1979 H           5.0282   31.6304    5.1237 H     495  UNL495      0.1146
   1980 H           4.7901   30.0707    5.5233 H     495  UNL495      0.1146
   1981 N           4.3026   29.9408    7.6031 N.3   496  UNL496     -0.3437
   1982 H           3.8609   30.2314    8.4742 H     496  UNL496      0.1146
   1983 H           5.0282   30.6304    7.4124 H     496  UNL496      0.1146
   1984 H           4.7901   29.0707    7.8120 H     496  UNL496      0.1146
   1985 N           4.3026   30.9408    9.8918 N.3   497  UNL497     -0.3437
   1986 H           3.8609   31.2314   10.7629 H     497  UNL497      0.1146
   1987 H           5.0282   31.6304    9.7011 H     497  UNL497      0.1146
   1988 H           4.7901   30.0707   10.1007 H     497  UNL497      0.1146
   1989 N           4.3026   30.9408   12.1806 N.3   498  UNL498     -0.3437
   1990 H           3.8609   31.2314   13.0517 H     498  UNL498      0.1146
   1991 H           5.0282   31.6304   11.9899 H     498  UNL498      0.1146
   1992 H           4.7901   30.0707   12.3895 H     498  UNL498      0.1146
   1993 N           4.3026   29.9408   14.4693 N.3   499  UNL499     -0.3437
   1994 H           3.8609   30.2314   15.3404 H     499  UNL499      0.1146
   1995 H           5.0282   30.6304   14.2786 H     499  UNL499      0.1146
   1996 H           4.7901   29.0707   14.6782 H     499  UNL499      0.1146
   1997 N           4.3026   30.9408   16.7580 N.3   500  UNL500     -0.3437
   1998 H           3.8609   31.2314   17.6291 H     500  UNL500      0.1146
   1999 H           5.0282   31.6304   16.5673 H     500  UNL500      0.1146
   2000 H           4.7901   30.0707   16.9669 H     500  UNL500      0.1146
   2001 N           4.3026   30.9408   19.0467 N.3   501  UNL501     -0.3437
   2002 H           3.8609   31.2314   19.9178 H     501  UNL501      0.1146
   2003 H           5.0282   31.6304   18.8560 H     501  UNL501      0.1146
   2004 H           4.7901   30.0707   19.2556 H     501  UNL501      0.1146
   2005 N           4.3026   30.9408   21.3354 N.3   502  UNL502     -0.3437
   2006 H           3.8609   31.2314   22.2065 H     502  UNL502      0.1146
   2007 H           5.0282   31.6304   21.1447 H     502  UNL502      0.1146
   2008 H           4.7901   30.0707   21.5443 H     502  UNL502      0.1146
   2009 N           4.4328   29.9408   24.1340 N.3   503  UNL503     -0.3437
   2010 H           5.3950   30.2314   23.9666 H     503  UNL503      0.1146
   2011 H           3.8457   30.6304   23.6668 H     503  UNL503      0.1146
   2012 H           4.3084   29.0707   23.6184 H     503  UNL503      0.1146
   2013 N           4.3026   30.9408   25.9128 N.3   504  UNL504     -0.3437
   2014 H           3.8609   31.2314   26.7840 H     504  UNL504      0.1146
   2015 H           5.0282   31.6304   25.7221 H     504  UNL504      0.1146
   2016 H           4.7901   30.0707   26.1217 H     504  UNL504      0.1146
   2017 N           4.3026   29.9408   28.2016 N.3   505  UNL505     -0.3437
   2018 H           3.8609   30.2314   29.0727 H     505  UNL505      0.1146
   2019 H           5.0282   30.6304   28.0109 H     505  UNL505      0.1146
   2020 H           4.7901   29.0707   28.4105 H     505  UNL505      0.1146
   2021 N           6.7034    0.8305    0.7315 N.3   506  UNL506     -0.3437
   2022 H           6.0819    1.1534    1.4717 H     506  UNL506      0.1146
   2023 H           7.6095    0.6782    1.1721 H     506  UNL506      0.1146
   2024 H           6.3637   -0.0916    0.4619 H     506  UNL506      0.1146
   2025 N           6.4603    0.5223    3.1055 N.3   507  UNL507     -0.3437
   2026 H           6.5880    0.1391    4.0410 H     507  UNL507      0.1146
   2027 H           6.3652    1.5298    3.2252 H     507  UNL507      0.1146
   2028 H           7.3449    0.3794    2.6203 H     507  UNL507      0.1146
   2029 N           6.7034    0.8305    5.3090 N.3   508  UNL508     -0.3437
   2030 H           6.0819    1.1534    6.0492 H     508  UNL508      0.1146
   2031 H           7.6095    0.6782    5.7495 H     508  UNL508      0.1146
   2032 H           6.3637   -0.0916    5.0393 H     508  UNL508      0.1146
   2033 N           6.7034    0.8305    7.5977 N.3   509  UNL509     -0.3437
   2034 H           6.0819    1.1534    8.3379 H     509  UNL509      0.1146
   2035 H           7.6095    0.6782    8.0382 H     509  UNL509      0.1146
   2036 H           6.3637   -0.0916    7.3280 H     509  UNL509      0.1146
   2037 N           6.7034    0.8305    9.8864 N.3   510  UNL510     -0.3437
   2038 H           6.0819    1.1534   10.6266 H     510  UNL510      0.1146
   2039 H           7.6095    0.6782   10.3270 H     510  UNL510      0.1146
   2040 H           6.3637   -0.0916    9.6167 H     510  UNL510      0.1146
   2041 N           6.4968    0.6151   12.1806 N.3   511  UNL511     -0.3437
   2042 H           6.0551    0.9057   13.0517 H     511  UNL511      0.1146
   2043 H           7.2224    1.3047   11.9899 H     511  UNL511      0.1146
   2044 H           6.9843   -0.2550   12.3895 H     511  UNL511      0.1146
   2045 N           6.4968    0.4810   14.8467 N.3   512  UNL512     -0.3437
   2046 H           6.0551    1.0050   14.0926 H     512  UNL512      0.1146
   2047 H           7.2224   -0.0845   14.4084 H     512  UNL512      0.1146
   2048 H           6.9843    1.1691   15.4188 H     512  UNL512      0.1146
   2049 N           6.6269    0.6151   17.2679 N.3   513  UNL513     -0.3437
   2050 H           7.5891    0.9057   17.1004 H     513  UNL513      0.1146
   2051 H           6.0399    1.3047   16.8007 H     513  UNL513      0.1146
   2052 H           6.5025   -0.2550   16.7523 H     513  UNL513      0.1146
   2053 N           6.4968    0.6151   19.0467 N.3   514  UNL514     -0.3437
   2054 H           6.0551    0.9057   19.9178 H     514  UNL514      0.1146
   2055 H           7.2224    1.3047   18.8560 H     514  UNL514      0.1146
   2056 H           6.9843   -0.2550   19.2556 H     514  UNL514      0.1146
   2057 N           6.7340    0.4240   21.3639 N.3   515  UNL515     -0.3437
   2058 H           5.7895    0.4260   21.7464 H     515  UNL515      0.1146
   2059 H           6.8736    1.3471   20.9556 H     515  UNL515      0.1146
   2060 H           7.3614    0.3735   22.1652 H     515  UNL515      0.1146
   2061 N           6.7034    0.8305   23.6187 N.3   516  UNL516     -0.3437
   2062 H           6.0819    1.1534   24.3589 H     516  UNL516      0.1146
   2063 H           7.6095    0.6782   24.0592 H     516  UNL516      0.1146
   2064 H           6.3637   -0.0916   23.3490 H     516  UNL516      0.1146
   2065 N           6.4603    0.5223   25.9927 N.3   517  UNL517     -0.3437
   2066 H           6.5880    0.1391   26.9282 H     517  UNL517      0.1146
   2067 H           6.3652    1.5298   26.1124 H     517  UNL517      0.1146
   2068 H           7.3449    0.3794   25.5074 H     517  UNL517      0.1146
   2069 N           6.4130    0.6321   29.3203 N.3   518  UNL518     -0.3437
   2070 H           6.5507    0.0386   30.1370 H     518  UNL518      0.1146
   2071 H           6.6921    1.5701   29.6044 H     518  UNL518      0.1146
   2072 H           7.1027    0.3298   28.6338 H     518  UNL518      0.1146
   2073 N           6.4968    3.2810    1.0703 N.3   519  UNL519     -0.3437
   2074 H           6.0551    2.4092    0.7818 H     519  UNL519      0.1146
   2075 H           7.2224    3.0211    1.7369 H     519  UNL519      0.1146
   2076 H           6.9843    3.6344    0.2482 H     519  UNL519      0.1146
   2077 N           6.4603    2.9661    3.1055 N.3   520  UNL520     -0.3437
   2078 H           6.5880    2.5829    4.0410 H     520  UNL520      0.1146
   2079 H           6.3652    3.9736    3.2252 H     520  UNL520      0.1146
   2080 H           7.3449    2.8232    2.6203 H     520  UNL520      0.1146
   2081 N           6.4603    2.9661    5.3942 N.3   521  UNL521     -0.3437
   2082 H           6.5880    2.5829    6.3298 H     521  UNL521      0.1146
   2083 H           6.3652    3.9736    5.5140 H     521  UNL521      0.1146
   2084 H           7.3449    2.8232    4.9090 H     521  UNL521      0.1146
   2085 N           6.4968    3.2810    7.9365 N.3   522  UNL522     -0.3437
   2086 H           6.0551    2.4092    7.6479 H     522  UNL522      0.1146
   2087 H           7.2224    3.0211    8.6031 H     522  UNL522      0.1146
   2088 H           6.9843    3.6344    7.1144 H     522  UNL522      0.1146
   2089 N           6.4968    3.2810   10.2252 N.3   523  UNL523     -0.3437
   2090 H           6.0551    2.4092    9.9367 H     523  UNL523      0.1146
   2091 H           7.2224    3.0211   10.8918 H     523  UNL523      0.1146
   2092 H           6.9843    3.6344    9.4031 H     523  UNL523      0.1146
   2093 N           6.4968    3.2810   12.5139 N.3   524  UNL524     -0.3437
   2094 H           6.0551    2.4092   12.2254 H     524  UNL524      0.1146
   2095 H           7.2224    3.0211   13.1805 H     524  UNL524      0.1146
   2096 H           6.9843    3.6344   11.6918 H     524  UNL524      0.1146
   2097 N           6.4968    3.2810   14.8026 N.3   525  UNL525     -0.3437
   2098 H           6.0551    2.4092   14.5141 H     525  UNL525      0.1146
   2099 H           7.2224    3.0211   15.4692 H     525  UNL525      0.1146
   2100 H           6.9843    3.6344   13.9805 H     525  UNL525      0.1146
   2101 N           6.4968    3.2810   17.0913 N.3   526  UNL526     -0.3437
   2102 H           6.0551    2.4092   16.8028 H     526  UNL526      0.1146
   2103 H           7.2224    3.0211   17.7579 H     526  UNL526      0.1146
   2104 H           6.9843    3.6344   16.2692 H     526  UNL526      0.1146
   2105 N           6.4603    2.9661   19.1265 N.3   527  UNL527     -0.3437
   2106 H           6.5880    2.5829   20.0621 H     527  UNL527      0.1146
   2107 H           6.3652    3.9736   19.2462 H     527  UNL527      0.1146
   2108 H           7.3449    2.8232   18.6413 H     527  UNL527      0.1146
   2109 N           6.4968    2.9248   21.7128 N.3   528  UNL528     -0.3437
   2110 H           6.0551    3.4488   20.9587 H     528  UNL528      0.1146
   2111 H           7.2224    2.3593   21.2745 H     528  UNL528      0.1146
   2112 H           6.9843    3.6129   22.2849 H     528  UNL528      0.1146
   2113 N           6.6269    3.0589   24.1340 N.3   529  UNL529     -0.3437
   2114 H           7.5891    3.3495   23.9666 H     529  UNL529      0.1146
   2115 H           6.0399    3.7485   23.6668 H     529  UNL529      0.1146
   2116 H           6.5025    2.1888   23.6184 H     529  UNL529      0.1146
   2117 N           6.4603    2.9661   25.9927 N.3   530  UNL530     -0.3437
   2118 H           6.5880    2.5829   26.9282 H     530  UNL530      0.1146
   2119 H           6.3652    3.9736   26.1124 H     530  UNL530      0.1146
   2120 H           7.3449    2.8232   25.5074 H     530  UNL530      0.1146
   2121 N           6.4130    3.0759   29.3203 N.3   531  UNL531     -0.3437
   2122 H           6.5507    2.4824   30.1370 H     531  UNL531      0.1146
   2123 H           6.6921    4.0139   29.6044 H     531  UNL531      0.1146
   2124 H           7.1027    2.7736   28.6338 H     531  UNL531      0.1146
   2125 N           6.4968    5.5027    0.7370 N.3   532  UNL532     -0.3437
   2126 H           6.0551    5.7933    1.6081 H     532  UNL532      0.1146
   2127 H           7.2224    6.1923    0.5463 H     532  UNL532      0.1146
   2128 H           6.9843    4.6326    0.9459 H     532  UNL532      0.1146
   2129 N           6.4968    5.5027    3.0257 N.3   533  UNL533     -0.3437
   2130 H           6.0551    5.7933    3.8968 H     533  UNL533      0.1146
   2131 H           7.2224    6.1923    2.8350 H     533  UNL533      0.1146
   2132 H           6.9843    4.6326    3.2346 H     533  UNL533      0.1146
   2133 N           6.4968    5.5027    5.3144 N.3   534  UNL534     -0.3437
   2134 H           6.0551    5.7933    6.1855 H     534  UNL534      0.1146
   2135 H           7.2224    6.1923    5.1237 H     534  UNL534      0.1146
   2136 H           6.9843    4.6326    5.5233 H     534  UNL534      0.1146
   2137 N           6.4968    5.5027    7.6031 N.3   535  UNL535     -0.3437
   2138 H           6.0551    5.7933    8.4742 H     535  UNL535      0.1146
   2139 H           7.2224    6.1923    7.4124 H     535  UNL535      0.1146
   2140 H           6.9843    4.6326    7.8120 H     535  UNL535      0.1146
   2141 N           6.4968    5.5027    9.8918 N.3   536  UNL536     -0.3437
   2142 H           6.0551    5.7933   10.7629 H     536  UNL536      0.1146
   2143 H           7.2224    6.1923    9.7011 H     536  UNL536      0.1146
   2144 H           6.9843    4.6326   10.1007 H     536  UNL536      0.1146
   2145 N           6.4968    5.5027   12.1806 N.3   537  UNL537     -0.3437
   2146 H           6.0551    5.7933   13.0517 H     537  UNL537      0.1146
   2147 H           7.2224    6.1923   11.9899 H     537  UNL537      0.1146
   2148 H           6.9843    4.6326   12.3895 H     537  UNL537      0.1146
   2149 N           6.4968    5.5027   14.4693 N.3   538  UNL538     -0.3437
   2150 H           6.0551    5.7933   15.3404 H     538  UNL538      0.1146
   2151 H           7.2224    6.1923   14.2786 H     538  UNL538      0.1146
   2152 H           6.9843    4.6326   14.6782 H     538  UNL538      0.1146
   2153 N           6.7034    5.7181   16.7525 N.3   539  UNL539     -0.3437
   2154 H           6.0819    6.0410   17.4928 H     539  UNL539      0.1146
   2155 H           7.6095    5.5658   17.1931 H     539  UNL539      0.1146
   2156 H           6.3637    4.7961   16.4829 H     539  UNL539      0.1146
   2157 N           6.4968    5.5027   19.0467 N.3   540  UNL540     -0.3437
   2158 H           6.0551    5.7933   19.9178 H     540  UNL540      0.1146
   2159 H           7.2224    6.1923   18.8560 H     540  UNL540      0.1146
   2160 H           6.9843    4.6326   19.2556 H     540  UNL540      0.1146
   2161 N           6.4603    5.4099   21.4152 N.3   541  UNL541     -0.3437
   2162 H           6.5880    5.0267   22.3508 H     541  UNL541      0.1146
   2163 H           6.3652    6.4174   21.5350 H     541  UNL541      0.1146
   2164 H           7.3449    5.2670   20.9300 H     541  UNL541      0.1146
   2165 N           6.4968    5.7248   23.9575 N.3   542  UNL542     -0.3437
   2166 H           6.0551    4.8530   23.6690 H     542  UNL542      0.1146
   2167 H           7.2224    5.4649   24.6241 H     542  UNL542      0.1146
   2168 H           6.9843    6.0782   23.1354 H     542  UNL542      0.1146
   2169 N           6.4968    5.7248   26.2462 N.3   543  UNL543     -0.3437
   2170 H           6.0551    4.8530   25.9577 H     543  UNL543      0.1146
   2171 H           7.2224    5.4649   26.9128 H     543  UNL543      0.1146
   2172 H           6.9843    6.0782   25.4241 H     543  UNL543      0.1146
   2173 N           6.4130    5.5197   29.3203 N.3   544  UNL544     -0.3437
   2174 H           6.5507    4.9262   30.1370 H     544  UNL544      0.1146
   2175 H           6.6921    6.4577   29.6044 H     544  UNL544      0.1146
   2176 H           7.1027    5.2174   28.6338 H     544  UNL544      0.1146
   2177 N           6.4968    8.1686    1.0703 N.3   545  UNL545     -0.3437
   2178 H           6.0551    7.2968    0.7818 H     545  UNL545      0.1146
   2179 H           7.2224    7.9087    1.7369 H     545  UNL545      0.1146
   2180 H           6.9843    8.5220    0.2482 H     545  UNL545      0.1146
   2181 N           6.4603    7.8537    3.1055 N.3   546  UNL546     -0.3437
   2182 H           6.5880    7.4705    4.0410 H     546  UNL546      0.1146
   2183 H           6.3652    8.8612    3.2252 H     546  UNL546      0.1146
   2184 H           7.3449    7.7108    2.6203 H     546  UNL546      0.1146
   2185 N           6.4603    7.8537    5.3942 N.3   547  UNL547     -0.3437
   2186 H           6.5880    7.4705    6.3298 H     547  UNL547      0.1146
   2187 H           6.3652    8.8612    5.5140 H     547  UNL547      0.1146
   2188 H           7.3449    7.7108    4.9090 H     547  UNL547      0.1146
   2189 N           6.4968    8.1686    7.9365 N.3   548  UNL548     -0.3437
   2190 H           6.0551    7.2968    7.6479 H     548  UNL548      0.1146
   2191 H           7.2224    7.9087    8.6031 H     548  UNL548      0.1146
   2192 H           6.9843    8.5220    7.1144 H     548  UNL548      0.1146
   2193 N           6.4968    8.1686   10.2252 N.3   549  UNL549     -0.3437
   2194 H           6.0551    7.2968    9.9367 H     549  UNL549      0.1146
   2195 H           7.2224    7.9087   10.8918 H     549  UNL549      0.1146
   2196 H           6.9843    8.5220    9.4031 H     549  UNL549      0.1146
   2197 N           6.4968    7.9465   12.1806 N.3   550  UNL550     -0.3437
   2198 H           6.0551    8.2371   13.0517 H     550  UNL550      0.1146
   2199 H           7.2224    8.6361   11.9899 H     550  UNL550      0.1146
   2200 H           6.9843    7.0764   12.3895 H     550  UNL550      0.1146
   2201 N           6.4968    7.8124   14.8467 N.3   551  UNL551     -0.3437
   2202 H           6.0551    8.3364   14.0926 H     551  UNL551      0.1146
   2203 H           7.2224    7.2469   14.4084 H     551  UNL551      0.1146
   2204 H           6.9843    8.5005   15.4188 H     551  UNL551      0.1146
   2205 N           6.4968    8.1686   17.0913 N.3   552  UNL552     -0.3437
   2206 H           6.0551    7.2968   16.8028 H     552  UNL552      0.1146
   2207 H           7.2224    7.9087   17.7579 H     552  UNL552      0.1146
   2208 H           6.9843    8.5220   16.2692 H     552  UNL552      0.1146
   2209 N           6.4968    8.1686   19.3800 N.3   553  UNL553     -0.3437
   2210 H           6.0551    7.2968   19.0915 H     553  UNL553      0.1146
   2211 H           7.2224    7.9087   20.0466 H     553  UNL553      0.1146
   2212 H           6.9843    8.5220   18.5579 H     553  UNL553      0.1146
   2213 N           6.4968    7.9465   21.3354 N.3   554  UNL554     -0.3437
   2214 H           6.0551    8.2371   22.2065 H     554  UNL554      0.1146
   2215 H           7.2224    8.6361   21.1447 H     554  UNL554      0.1146
   2216 H           6.9843    7.0764   21.5443 H     554  UNL554      0.1146
   2217 N           6.4968    7.8124   24.0016 N.3   555  UNL555     -0.3437
   2218 H           6.0551    8.3364   23.2474 H     555  UNL555      0.1146
   2219 H           7.2224    7.2469   23.5632 H     555  UNL555      0.1146
   2220 H           6.9843    8.5005   24.5736 H     555  UNL555      0.1146
   2221 N           6.4968    8.1686   26.2462 N.3   556  UNL556     -0.3437
   2222 H           6.0551    7.2968   25.9577 H     556  UNL556      0.1146
   2223 H           7.2224    7.9087   26.9128 H     556  UNL556      0.1146
   2224 H           6.9843    8.5220   25.4241 H     556  UNL556      0.1146
   2225 N           6.4130    7.9635   29.3203 N.3   557  UNL557     -0.3437
   2226 H           6.5507    7.3700   30.1370 H     557  UNL557      0.1146
   2227 H           6.6921    8.9015   29.6044 H     557  UNL557      0.1146
   2228 H           7.1027    7.6612   28.6338 H     557  UNL557      0.1146
   2229 N           6.4968   10.6125    1.0703 N.3   558  UNL558     -0.3437
   2230 H           6.0551    9.7407    0.7818 H     558  UNL558      0.1146
   2231 H           7.2224   10.3525    1.7369 H     558  UNL558      0.1146
   2232 H           6.9843   10.9658    0.2482 H     558  UNL558      0.1146
   2233 N           6.4968   10.6125    3.3590 N.3   559  UNL559     -0.3437
   2234 H           6.0551    9.7407    3.0705 H     559  UNL559      0.1146
   2235 H           7.2224   10.3525    4.0256 H     559  UNL559      0.1146
   2236 H           6.9843   10.9658    2.5369 H     559  UNL559      0.1146
   2237 N           6.4968   10.3903    5.3144 N.3   560  UNL560     -0.3437
   2238 H           6.0551   10.6809    6.1855 H     560  UNL560      0.1146
   2239 H           7.2224   11.0799    5.1237 H     560  UNL560      0.1146
   2240 H           6.9843    9.5202    5.5233 H     560  UNL560      0.1146
   2241 N           6.4603   10.2975    7.6830 N.3   561  UNL561     -0.3437
   2242 H           6.5880    9.9143    8.6185 H     561  UNL561      0.1146
   2243 H           6.3652   11.3050    7.8027 H     561  UNL561      0.1146
   2244 H           7.3449   10.1547    7.1977 H     561  UNL561      0.1146
   2245 N           6.4968   10.6125   10.2252 N.3   562  UNL562     -0.3437
   2246 H           6.0551    9.7407    9.9367 H     562  UNL562      0.1146
   2247 H           7.2224   10.3525   10.8918 H     562  UNL562      0.1146
   2248 H           6.9843   10.9658    9.4031 H     562  UNL562      0.1146
   2249 N           6.4968   10.6125   12.5139 N.3   563  UNL563     -0.3437
   2250 H           6.0551    9.7407   12.2254 H     563  UNL563      0.1146
   2251 H           7.2224   10.3525   13.1805 H     563  UNL563      0.1146
   2252 H           6.9843   10.9658   11.6918 H     563  UNL563      0.1146
   2253 N           6.4968   10.6125   14.8026 N.3   564  UNL564     -0.3437
   2254 H           6.0551    9.7407   14.5141 H     564  UNL564      0.1146
   2255 H           7.2224   10.3525   15.4692 H     564  UNL564      0.1146
   2256 H           6.9843   10.9658   13.9805 H     564  UNL564      0.1146
   2257 N           6.4968   10.6125   17.0913 N.3   565  UNL565     -0.3437
   2258 H           6.0551    9.7407   16.8028 H     565  UNL565      0.1146
   2259 H           7.2224   10.3525   17.7579 H     565  UNL565      0.1146
   2260 H           6.9843   10.9658   16.2692 H     565  UNL565      0.1146
   2261 N           6.4968   10.6125   19.3800 N.3   566  UNL566     -0.3437
   2262 H           6.0551    9.7407   19.0915 H     566  UNL566      0.1146
   2263 H           7.2224   10.3525   20.0466 H     566  UNL566      0.1146
   2264 H           6.9843   10.9658   18.5579 H     566  UNL566      0.1146
   2265 N           6.4603   10.2975   21.4152 N.3   567  UNL567     -0.3437
   2266 H           6.5880    9.9143   22.3508 H     567  UNL567      0.1146
   2267 H           6.3652   11.3050   21.5350 H     567  UNL567      0.1146
   2268 H           7.3449   10.1547   20.9300 H     567  UNL567      0.1146
   2269 N           6.4968   10.2562   24.0016 N.3   568  UNL568     -0.3437
   2270 H           6.0551   10.7802   23.2474 H     568  UNL568      0.1146
   2271 H           7.2224    9.6907   23.5632 H     568  UNL568      0.1146
   2272 H           6.9843   10.9443   24.5736 H     568  UNL568      0.1146
   2273 N           6.4968   10.6125   26.2462 N.3   569  UNL569     -0.3437
   2274 H           6.0551    9.7407   25.9577 H     569  UNL569      0.1146
   2275 H           7.2224   10.3525   26.9128 H     569  UNL569      0.1146
   2276 H           6.9843   10.9658   25.4241 H     569  UNL569      0.1146
   2277 N           6.4130   10.4074   29.3203 N.3   570  UNL570     -0.3437
   2278 H           6.5507    9.8138   30.1370 H     570  UNL570      0.1146
   2279 H           6.6921   11.3453   29.6044 H     570  UNL570      0.1146
   2280 H           7.1027   10.1050   28.6338 H     570  UNL570      0.1146
   2281 N           6.6269   12.8341    1.2469 N.3   571  UNL571     -0.3437
   2282 H           7.5891   13.1247    1.0794 H     571  UNL571      0.1146
   2283 H           6.0399   13.5237    0.7797 H     571  UNL571      0.1146
   2284 H           6.5025   11.9640    0.7313 H     571  UNL571      0.1146
   2285 N           6.4968   12.8341    3.0257 N.3   572  UNL572     -0.3437
   2286 H           6.0551   13.1247    3.8968 H     572  UNL572      0.1146
   2287 H           7.2224   13.5237    2.8350 H     572  UNL572      0.1146
   2288 H           6.9843   11.9640    3.2346 H     572  UNL572      0.1146
   2289 N           6.4968   12.7000    5.6918 N.3   573  UNL573     -0.3437
   2290 H           6.0551   13.2240    4.9377 H     573  UNL573      0.1146
   2291 H           7.2224   12.1345    5.2535 H     573  UNL573      0.1146
   2292 H           6.9843   13.3881    6.2639 H     573  UNL573      0.1146
   2293 N           6.6269   12.8341    8.1130 N.3   574  UNL574     -0.3437
   2294 H           7.5891   13.1247    7.9456 H     574  UNL574      0.1146
   2295 H           6.0399   13.5237    7.6458 H     574  UNL574      0.1146
   2296 H           6.5025   11.9640    7.5974 H     574  UNL574      0.1146
   2297 N           6.4968   12.8341    9.8918 N.3   575  UNL575     -0.3437
   2298 H           6.0551   13.1247   10.7629 H     575  UNL575      0.1146
   2299 H           7.2224   13.5237    9.7011 H     575  UNL575      0.1146
   2300 H           6.9843   11.9640   10.1007 H     575  UNL575      0.1146
   2301 N           6.4968   12.8341   12.1806 N.3   576  UNL576     -0.3437
   2302 H           6.0551   13.1247   13.0517 H     576  UNL576      0.1146
   2303 H           7.2224   13.5237   11.9899 H     576  UNL576      0.1146
   2304 H           6.9843   11.9640   12.3895 H     576  UNL576      0.1146
   2305 N           6.4968   12.7000   14.8467 N.3   577  UNL577     -0.3437
   2306 H           6.0551   13.2240   14.0926 H     577  UNL577      0.1146
   2307 H           7.2224   12.1345   14.4084 H     577  UNL577      0.1146
   2308 H           6.9843   13.3881   15.4188 H     577  UNL577      0.1146
   2309 N           6.6269   12.8341   17.2679 N.3   578  UNL578     -0.3437
   2310 H           7.5891   13.1247   17.1004 H     578  UNL578      0.1146
   2311 H           6.0399   13.5237   16.8007 H     578  UNL578      0.1146
   2312 H           6.5025   11.9640   16.7523 H     578  UNL578      0.1146
   2313 N           6.4968   12.8341   19.0467 N.3   579  UNL579     -0.3437
   2314 H           6.0551   13.1247   19.9178 H     579  UNL579      0.1146
   2315 H           7.2224   13.5237   18.8560 H     579  UNL579      0.1146
   2316 H           6.9843   11.9640   19.2556 H     579  UNL579      0.1146
   2317 N           6.4968   12.8341   21.3354 N.3   580  UNL580     -0.3437
   2318 H           6.0551   13.1247   22.2065 H     580  UNL580      0.1146
   2319 H           7.2224   13.5237   21.1447 H     580  UNL580      0.1146
   2320 H           6.9843   11.9640   21.5443 H     580  UNL580      0.1146
   2321 N           6.7034   13.0496   23.6187 N.3   581  UNL581     -0.3437
   2322 H           6.0819   13.3724   24.3589 H     581  UNL581      0.1146
   2323 H           7.6095   12.8972   24.0592 H     581  UNL581      0.1146
   2324 H           6.3637   12.1275   23.3490 H     581  UNL581      0.1146
   2325 N           6.7034   13.0496   25.9074 N.3   582  UNL582     -0.3437
   2326 H           6.0819   13.3724   26.6476 H     582  UNL582      0.1146
   2327 H           7.6095   12.8972   26.3480 H     582  UNL582      0.1146
   2328 H           6.3637   12.1275   25.6377 H     582  UNL582      0.1146
   2329 N           6.4130   12.8512   29.3203 N.3   583  UNL583     -0.3437
   2330 H           6.5507   12.2576   30.1370 H     583  UNL583      0.1146
   2331 H           6.6921   13.7891   29.6044 H     583  UNL583      0.1146
   2332 H           7.1027   12.5488   28.6338 H     583  UNL583      0.1146
   2333 N           6.4968   15.5001    1.0703 N.3   584  UNL584     -0.3437
   2334 H           6.0551   14.6283    0.7818 H     584  UNL584      0.1146
   2335 H           7.2224   15.2401    1.7369 H     584  UNL584      0.1146
   2336 H           6.9843   15.8534    0.2482 H     584  UNL584      0.1146
   2337 N           6.4603   15.1851    3.1055 N.3   585  UNL585     -0.3437
   2338 H           6.5880   14.8019    4.0410 H     585  UNL585      0.1146
   2339 H           6.3652   16.1926    3.2252 H     585  UNL585      0.1146
   2340 H           7.3449   15.0423    2.6203 H     585  UNL585      0.1146
   2341 N           6.4968   15.5001    5.6477 N.3   586  UNL586     -0.3437
   2342 H           6.0551   14.6283    5.3592 H     586  UNL586      0.1146
   2343 H           7.2224   15.2401    6.3143 H     586  UNL586      0.1146
   2344 H           6.9843   15.8534    4.8256 H     586  UNL586      0.1146
   2345 N           6.4968   15.5001    7.9365 N.3   587  UNL587     -0.3437
   2346 H           6.0551   14.6283    7.6479 H     587  UNL587      0.1146
   2347 H           7.2224   15.2401    8.6031 H     587  UNL587      0.1146
   2348 H           6.9843   15.8534    7.1144 H     587  UNL587      0.1146
   2349 N           6.4603   15.1851    9.9717 N.3   588  UNL588     -0.3437
   2350 H           6.5880   14.8019   10.9072 H     588  UNL588      0.1146
   2351 H           6.3652   16.1926   10.0914 H     588  UNL588      0.1146
   2352 H           7.3449   15.0423    9.4864 H     588  UNL588      0.1146
   2353 N           6.4603   15.1851   12.2604 N.3   589  UNL589     -0.3437
   2354 H           6.5880   14.8019   13.1959 H     589  UNL589      0.1146
   2355 H           6.3652   16.1926   12.3801 H     589  UNL589      0.1146
   2356 H           7.3449   15.0423   11.7751 H     589  UNL589      0.1146
   2357 N           6.4968   15.5001   14.8026 N.3   590  UNL590     -0.3437
   2358 H           6.0551   14.6283   14.5141 H     590  UNL590      0.1146
   2359 H           7.2224   15.2401   15.4692 H     590  UNL590      0.1146
   2360 H           6.9843   15.8534   13.9805 H     590  UNL590      0.1146
   2361 N           6.4968   15.5001   17.0913 N.3   591  UNL591     -0.3437
   2362 H           6.0551   14.6283   16.8028 H     591  UNL591      0.1146
   2363 H           7.2224   15.2401   17.7579 H     591  UNL591      0.1146
   2364 H           6.9843   15.8534   16.2692 H     591  UNL591      0.1146
   2365 N           6.4603   15.1851   19.1265 N.3   592  UNL592     -0.3437
   2366 H           6.5880   14.8019   20.0621 H     592  UNL592      0.1146
   2367 H           6.3652   16.1926   19.2462 H     592  UNL592      0.1146
   2368 H           7.3449   15.0423   18.6413 H     592  UNL592      0.1146
   2369 N           6.4968   15.1438   21.7128 N.3   593  UNL593     -0.3437
   2370 H           6.0551   15.6678   20.9587 H     593  UNL593      0.1146
   2371 H           7.2224   14.5784   21.2745 H     593  UNL593      0.1146
   2372 H           6.9843   15.8319   22.2849 H     593  UNL593      0.1146
   2373 N           6.4968   15.5001   23.9575 N.3   594  UNL594     -0.3437
   2374 H           6.0551   14.6283   23.6690 H     594  UNL594      0.1146
   2375 H           7.2224   15.2401   24.6241 H     594  UNL594      0.1146
   2376 H           6.9843   15.8534   23.1354 H     594  UNL594      0.1146
   2377 N           6.4968   15.5001   26.2462 N.3   595  UNL595     -0.3437
   2378 H           6.0551   14.6283   25.9577 H     595  UNL595      0.1146
   2379 H           7.2224   15.2401   26.9128 H     595  UNL595      0.1146
   2380 H           6.9843   15.8534   25.4241 H     595  UNL595      0.1146
   2381 N           6.4130   15.2950   29.3203 N.3   596  UNL596     -0.3437
   2382 H           6.5507   14.7014   30.1370 H     596  UNL596      0.1146
   2383 H           6.6921   16.2329   29.6044 H     596  UNL596      0.1146
   2384 H           7.1027   14.9926   28.6338 H     596  UNL596      0.1146
   2385 N           6.4968   17.7217    0.7370 N.3   597  UNL597     -0.3437
   2386 H           6.0551   18.0123    1.6081 H     597  UNL597      0.1146
   2387 H           7.2224   18.4114    0.5463 H     597  UNL597      0.1146
   2388 H           6.9843   16.8517    0.9459 H     597  UNL597      0.1146
   2389 N           6.4968   17.7217    3.0257 N.3   598  UNL598     -0.3437
   2390 H           6.0551   18.0123    3.8968 H     598  UNL598      0.1146
   2391 H           7.2224   18.4114    2.8350 H     598  UNL598      0.1146
   2392 H           6.9843   16.8517    3.2346 H     598  UNL598      0.1146
   2393 N           6.4968   17.7217    5.3144 N.3   599  UNL599     -0.3437
   2394 H           6.0551   18.0123    6.1855 H     599  UNL599      0.1146
   2395 H           7.2224   18.4114    5.1237 H     599  UNL599      0.1146
   2396 H           6.9843   16.8517    5.5233 H     599  UNL599      0.1146
   2397 N           6.4968   17.7217    7.6031 N.3   600  UNL600     -0.3437
   2398 H           6.0551   18.0123    8.4742 H     600  UNL600      0.1146
   2399 H           7.2224   18.4114    7.4124 H     600  UNL600      0.1146
   2400 H           6.9843   16.8517    7.8120 H     600  UNL600      0.1146
   2401 N           6.4968   17.7217    9.8918 N.3   601  UNL601     -0.3437
   2402 H           6.0551   18.0123   10.7629 H     601  UNL601      0.1146
   2403 H           7.2224   18.4114    9.7011 H     601  UNL601      0.1146
   2404 H           6.9843   16.8517   10.1007 H     601  UNL601      0.1146
   2405 N           6.4968   17.7217   12.1806 N.3   602  UNL602     -0.3437
   2406 H           6.0551   18.0123   13.0517 H     602  UNL602      0.1146
   2407 H           7.2224   18.4114   11.9899 H     602  UNL602      0.1146
   2408 H           6.9843   16.8517   12.3895 H     602  UNL602      0.1146
   2409 N           6.4968   17.7217   14.4693 N.3   603  UNL603     -0.3437
   2410 H           6.0551   18.0123   15.3404 H     603  UNL603      0.1146
   2411 H           7.2224   18.4114   14.2786 H     603  UNL603      0.1146
   2412 H           6.9843   16.8517   14.6782 H     603  UNL603      0.1146
   2413 N           6.4968   17.7217   16.7580 N.3   604  UNL604     -0.3437
   2414 H           6.0551   18.0123   17.6291 H     604  UNL604      0.1146
   2415 H           7.2224   18.4114   16.5673 H     604  UNL604      0.1146
   2416 H           6.9843   16.8517   16.9669 H     604  UNL604      0.1146
   2417 N           6.4968   17.7217   19.0467 N.3   605  UNL605     -0.3437
   2418 H           6.0551   18.0123   19.9178 H     605  UNL605      0.1146
   2419 H           7.2224   18.4114   18.8560 H     605  UNL605      0.1146
   2420 H           6.9843   16.8517   19.2556 H     605  UNL605      0.1146
   2421 N           6.4968   17.7217   21.3354 N.3   606  UNL606     -0.3437
   2422 H           6.0551   18.0123   22.2065 H     606  UNL606      0.1146
   2423 H           7.2224   18.4114   21.1447 H     606  UNL606      0.1146
   2424 H           6.9843   16.8517   21.5443 H     606  UNL606      0.1146
   2425 N           6.4968   17.7217   23.6241 N.3   607  UNL607     -0.3437
   2426 H           6.0551   18.0123   24.4952 H     607  UNL607      0.1146
   2427 H           7.2224   18.4114   23.4334 H     607  UNL607      0.1146
   2428 H           6.9843   16.8517   23.8330 H     607  UNL607      0.1146
   2429 N           6.7034   17.9372   25.9074 N.3   608  UNL608     -0.3437
   2430 H           6.0819   18.2600   26.6476 H     608  UNL608      0.1146
   2431 H           7.6095   17.7848   26.3480 H     608  UNL608      0.1146
   2432 H           6.3637   17.0151   25.6377 H     608  UNL608      0.1146
   2433 N           6.4130   17.7388   29.3203 N.3   609  UNL609     -0.3437
   2434 H           6.5507   17.1452   30.1370 H     609  UNL609      0.1146
   2435 H           6.6921   18.6767   29.6044 H     609  UNL609      0.1146
   2436 H           7.1027   17.4364   28.6338 H     609  UNL609      0.1146
   2437 N           6.4968   20.3877    1.0703 N.3   610  UNL610     -0.3437
   2438 H           6.0551   19.5159    0.7818 H     610  UNL610      0.1146
   2439 H           7.2224   20.1278    1.7369 H     610  UNL610      0.1146
   2440 H           6.9843   20.7410    0.2482 H     610  UNL610      0.1146
   2441 N           6.4968   20.3877    3.3590 N.3   611  UNL611     -0.3437
   2442 H           6.0551   19.5159    3.0705 H     611  UNL611      0.1146
   2443 H           7.2224   20.1278    4.0256 H     611  UNL611      0.1146
   2444 H           6.9843   20.7410    2.5369 H     611  UNL611      0.1146
   2445 N           6.4968   20.3877    5.6477 N.3   612  UNL612     -0.3437
   2446 H           6.0551   19.5159    5.3592 H     612  UNL612      0.1146
   2447 H           7.2224   20.1278    6.3143 H     612  UNL612      0.1146
   2448 H           6.9843   20.7410    4.8256 H     612  UNL612      0.1146
   2449 N           6.4968   20.3877    7.9365 N.3   613  UNL613     -0.3437
   2450 H           6.0551   19.5159    7.6479 H     613  UNL613      0.1146
   2451 H           7.2224   20.1278    8.6031 H     613  UNL613      0.1146
   2452 H           6.9843   20.7410    7.1144 H     613  UNL613      0.1146
   2453 N           6.7223   20.2664    9.8297 N.3   614  UNL614     -0.3437
   2454 H           5.8125   19.8525   10.0278 H     614  UNL614      0.1146
   2455 H           6.8094   21.0659   10.4555 H     614  UNL614      0.1146
   2456 H           7.4142   19.5874   10.1437 H     614  UNL614      0.1146
   2457 N           6.7034   20.3810   12.1751 N.3   615  UNL615     -0.3437
   2458 H           6.0819   20.7038   12.9153 H     615  UNL615      0.1146
   2459 H           7.6095   20.2286   12.6157 H     615  UNL615      0.1146
   2460 H           6.3637   19.4589   11.9054 H     615  UNL615      0.1146
   2461 N           6.4603   20.0727   14.5491 N.3   616  UNL616     -0.3437
   2462 H           6.5880   19.6895   15.4846 H     616  UNL616      0.1146
   2463 H           6.3652   21.0802   14.6688 H     616  UNL616      0.1146
   2464 H           7.3449   19.9299   14.0639 H     616  UNL616      0.1146
   2465 N           6.4968   20.3877   17.0913 N.3   617  UNL617     -0.3437
   2466 H           6.0551   19.5159   16.8028 H     617  UNL617      0.1146
   2467 H           7.2224   20.1278   17.7579 H     617  UNL617      0.1146
   2468 H           6.9843   20.7410   16.2692 H     617  UNL617      0.1146
   2469 N           6.4968   20.3877   19.3800 N.3   618  UNL618     -0.3437
   2470 H           6.0551   19.5159   19.0915 H     618  UNL618      0.1146
   2471 H           7.2224   20.1278   20.0466 H     618  UNL618      0.1146
   2472 H           6.9843   20.7410   18.5579 H     618  UNL618      0.1146
   2473 N           6.4968   20.3877   21.6687 N.3   619  UNL619     -0.3437
   2474 H           6.0551   19.5159   21.3802 H     619  UNL619      0.1146
   2475 H           7.2224   20.1278   22.3353 H     619  UNL619      0.1146
   2476 H           6.9843   20.7410   20.8466 H     619  UNL619      0.1146
   2477 N           6.4968   20.3877   23.9575 N.3   620  UNL620     -0.3437
   2478 H           6.0551   19.5159   23.6690 H     620  UNL620      0.1146
   2479 H           7.2224   20.1278   24.6241 H     620  UNL620      0.1146
   2480 H           6.9843   20.7410   23.1354 H     620  UNL620      0.1146
   2481 N           6.4603   20.0727   25.9927 N.3   621  UNL621     -0.3437
   2482 H           6.5880   19.6895   26.9282 H     621  UNL621      0.1146
   2483 H           6.3652   21.0802   26.1124 H     621  UNL621      0.1146
   2484 H           7.3449   19.9299   25.5074 H     621  UNL621      0.1146
   2485 N           6.4130   20.1826   29.3203 N.3   622  UNL622     -0.3437
   2486 H           6.5507   19.5890   30.1370 H     622  UNL622      0.1146
   2487 H           6.6921   21.1205   29.6044 H     622  UNL622      0.1146
   2488 H           7.1027   19.8802   28.6338 H     622  UNL622      0.1146
   2489 N           6.4968   22.8315    1.0703 N.3   623  UNL623     -0.3437
   2490 H           6.0551   21.9597    0.7818 H     623  UNL623      0.1146
   2491 H           7.2224   22.5716    1.7369 H     623  UNL623      0.1146
   2492 H           6.9843   23.1848    0.2482 H     623  UNL623      0.1146
   2493 N           6.4968   22.6094    3.0257 N.3   624  UNL624     -0.3437
   2494 H           6.0551   22.9000    3.8968 H     624  UNL624      0.1146
   2495 H           7.2224   23.2990    2.8350 H     624  UNL624      0.1146
   2496 H           6.9843   21.7393    3.2346 H     624  UNL624      0.1146
   2497 N           6.4968   22.4752    5.6918 N.3   625  UNL625     -0.3437
   2498 H           6.0551   22.9992    4.9377 H     625  UNL625      0.1146
   2499 H           7.2224   21.9098    5.2535 H     625  UNL625      0.1146
   2500 H           6.9843   23.1633    6.2639 H     625  UNL625      0.1146
   2501 N           6.4968   22.8315    7.9365 N.3   626  UNL626     -0.3437
   2502 H           6.0551   21.9597    7.6479 H     626  UNL626      0.1146
   2503 H           7.2224   22.5716    8.6031 H     626  UNL626      0.1146
   2504 H           6.9843   23.1848    7.1144 H     626  UNL626      0.1146
   2505 N           6.4968   22.6094    9.8918 N.3   627  UNL627     -0.3437
   2506 H           6.0551   22.9000   10.7629 H     627  UNL627      0.1146
   2507 H           7.2224   23.2990    9.7011 H     627  UNL627      0.1146
   2508 H           6.9843   21.7393   10.1007 H     627  UNL627      0.1146
   2509 N           6.4968   22.6094   12.1806 N.3   628  UNL628     -0.3437
   2510 H           6.0551   22.9000   13.0517 H     628  UNL628      0.1146
   2511 H           7.2224   23.2990   11.9899 H     628  UNL628      0.1146
   2512 H           6.9843   21.7393   12.3895 H     628  UNL628      0.1146
   2513 N           6.4968   22.4752   14.8467 N.3   629  UNL629     -0.3437
   2514 H           6.0551   22.9992   14.0926 H     629  UNL629      0.1146
   2515 H           7.2224   21.9098   14.4084 H     629  UNL629      0.1146
   2516 H           6.9843   23.1633   15.4188 H     629  UNL629      0.1146
   2517 N           6.4968   22.8315   17.0913 N.3   630  UNL630     -0.3437
   2518 H           6.0551   21.9597   16.8028 H     630  UNL630      0.1146
   2519 H           7.2224   22.5716   17.7579 H     630  UNL630      0.1146
   2520 H           6.9843   23.1848   16.2692 H     630  UNL630      0.1146
   2521 N           6.4968   22.8315   19.3800 N.3   631  UNL631     -0.3437
   2522 H           6.0551   21.9597   19.0915 H     631  UNL631      0.1146
   2523 H           7.2224   22.5716   20.0466 H     631  UNL631      0.1146
   2524 H           6.9843   23.1848   18.5579 H     631  UNL631      0.1146
   2525 N           6.4603   22.5165   21.4152 N.3   632  UNL632     -0.3437
   2526 H           6.5880   22.1333   22.3508 H     632  UNL632      0.1146
   2527 H           6.3652   23.5240   21.5350 H     632  UNL632      0.1146
   2528 H           7.3449   22.3737   20.9300 H     632  UNL632      0.1146
   2529 N           6.4603   22.5165   23.7040 N.3   633  UNL633     -0.3437
   2530 H           6.5880   22.1333   24.6395 H     633  UNL633      0.1146
   2531 H           6.3652   23.5240   23.8237 H     633  UNL633      0.1146
   2532 H           7.3449   22.3737   23.2187 H     633  UNL633      0.1146
   2533 N           6.4968   22.8315   26.2462 N.3   634  UNL634     -0.3437
   2534 H           6.0551   21.9597   25.9577 H     634  UNL634      0.1146
   2535 H           7.2224   22.5716   26.9128 H     634  UNL634      0.1146
   2536 H           6.9843   23.1848   25.4241 H     634  UNL634      0.1146
   2537 N           6.4130   22.6264   29.3203 N.3   635  UNL635     -0.3437
   2538 H           6.5507   22.0328   30.1370 H     635  UNL635      0.1146
   2539 H           6.6921   23.5643   29.6044 H     635  UNL635      0.1146
   2540 H           7.1027   22.3240   28.6338 H     635  UNL635      0.1146
   2541 N           6.4968   25.2753    1.0703 N.3   636  UNL636     -0.3437
   2542 H           6.0551   24.4035    0.7818 H     636  UNL636      0.1146
   2543 H           7.2224   25.0154    1.7369 H     636  UNL636      0.1146
   2544 H           6.9843   25.6286    0.2482 H     636  UNL636      0.1146
   2545 N           6.4968   25.2753    3.3590 N.3   637  UNL637     -0.3437
   2546 H           6.0551   24.4035    3.0705 H     637  UNL637      0.1146
   2547 H           7.2224   25.0154    4.0256 H     637  UNL637      0.1146
   2548 H           6.9843   25.6286    2.5369 H     637  UNL637      0.1146
   2549 N           6.4968   25.2753    5.6477 N.3   638  UNL638     -0.3437
   2550 H           6.0551   24.4035    5.3592 H     638  UNL638      0.1146
   2551 H           7.2224   25.0154    6.3143 H     638  UNL638      0.1146
   2552 H           6.9843   25.6286    4.8256 H     638  UNL638      0.1146
   2553 N           6.4968   25.2753    7.9365 N.3   639  UNL639     -0.3437
   2554 H           6.0551   24.4035    7.6479 H     639  UNL639      0.1146
   2555 H           7.2224   25.0154    8.6031 H     639  UNL639      0.1146
   2556 H           6.9843   25.6286    7.1144 H     639  UNL639      0.1146
   2557 N           6.7566   24.8884   10.3284 N.3   640  UNL640     -0.3437
   2558 H           7.5768   25.2080    9.8152 H     640  UNL640      0.1146
   2559 H           6.3010   25.7289   10.6813 H     640  UNL640      0.1146
   2560 H           6.1240   24.4975    9.6317 H     640  UNL640      0.1146
   2561 N           6.6269   25.0532   12.6904 N.3   641  UNL641     -0.3437
   2562 H           7.5891   25.3438   12.5230 H     641  UNL641      0.1146
   2563 H           6.0399   25.7428   12.2232 H     641  UNL641      0.1146
   2564 H           6.5025   24.1831   12.1749 H     641  UNL641      0.1146
   2565 N           6.7034   25.2686   14.4638 N.3   642  UNL642     -0.3437
   2566 H           6.0819   25.5914   15.2040 H     642  UNL642      0.1146
   2567 H           7.6095   25.1162   14.9044 H     642  UNL642      0.1146
   2568 H           6.3637   24.3465   14.1941 H     642  UNL642      0.1146
   2569 N           6.4968   25.0532   16.7580 N.3   643  UNL643     -0.3437
   2570 H           6.0551   25.3438   17.6291 H     643  UNL643      0.1146
   2571 H           7.2224   25.7428   16.5673 H     643  UNL643      0.1146
   2572 H           6.9843   24.1831   16.9669 H     643  UNL643      0.1146
   2573 N           6.4968   24.9191   19.4241 N.3   644  UNL644     -0.3437
   2574 H           6.0551   25.4430   18.6700 H     644  UNL644      0.1146
   2575 H           7.2224   24.3536   18.9858 H     644  UNL644      0.1146
   2576 H           6.9843   25.6071   19.9962 H     644  UNL644      0.1146
   2577 N           6.4968   25.0532   21.3354 N.3   645  UNL645     -0.3437
   2578 H           6.0551   25.3438   22.2065 H     645  UNL645      0.1146
   2579 H           7.2224   25.7428   21.1447 H     645  UNL645      0.1146
   2580 H           6.9843   24.1831   21.5443 H     645  UNL645      0.1146
   2581 N           6.4968   24.9191   24.0016 N.3   646  UNL646     -0.3437
   2582 H           6.0551   25.4430   23.2474 H     646  UNL646      0.1146
   2583 H           7.2224   24.3536   23.5632 H     646  UNL646      0.1146
   2584 H           6.9843   25.6071   24.5736 H     646  UNL646      0.1146
   2585 N           6.4968   25.2753   26.2462 N.3   647  UNL647     -0.3437
   2586 H           6.0551   24.4035   25.9577 H     647  UNL647      0.1146
   2587 H           7.2224   25.0154   26.9128 H     647  UNL647      0.1146
   2588 H           6.9843   25.6286   25.4241 H     647  UNL647      0.1146
   2589 N           6.4130   25.0702   29.3203 N.3   648  UNL648     -0.3437
   2590 H           6.5507   24.4766   30.1370 H     648  UNL648      0.1146
   2591 H           6.6921   26.0081   29.6044 H     648  UNL648      0.1146
   2592 H           7.1027   24.7678   28.6338 H     648  UNL648      0.1146
   2593 N           6.7034   27.7124    0.7315 N.3   649  UNL649     -0.3437
   2594 H           6.0819   28.0352    1.4717 H     649  UNL649      0.1146
   2595 H           7.6095   27.5600    1.1721 H     649  UNL649      0.1146
   2596 H           6.3637   26.7903    0.4619 H     649  UNL649      0.1146
   2597 N           6.4968   27.4970    3.0257 N.3   650  UNL650     -0.3437
   2598 H           6.0551   27.7876    3.8968 H     650  UNL650      0.1146
   2599 H           7.2224   28.1866    2.8350 H     650  UNL650      0.1146
   2600 H           6.9843   26.6269    3.2346 H     650  UNL650      0.1146
   2601 N           6.4603   27.4041    5.3942 N.3   651  UNL651     -0.3437
   2602 H           6.5880   27.0209    6.3298 H     651  UNL651      0.1146
   2603 H           6.3652   28.4116    5.5140 H     651  UNL651      0.1146
   2604 H           7.3449   27.2613    4.9090 H     651  UNL651      0.1146
   2605 N           6.4968   27.7191    7.9365 N.3   652  UNL652     -0.3437
   2606 H           6.0551   26.8473    7.6479 H     652  UNL652      0.1146
   2607 H           7.2224   27.4592    8.6031 H     652  UNL652      0.1146
   2608 H           6.9843   28.0724    7.1144 H     652  UNL652      0.1146
   2609 N           6.7223   27.5979    9.8297 N.3   653  UNL653     -0.3437
   2610 H           5.8125   27.1839   10.0278 H     653  UNL653      0.1146
   2611 H           6.8094   28.3974   10.4555 H     653  UNL653      0.1146
   2612 H           7.4142   26.9188   10.1437 H     653  UNL653      0.1146
   2613 N           6.7034   27.7124   12.1751 N.3   654  UNL654     -0.3437
   2614 H           6.0819   28.0352   12.9153 H     654  UNL654      0.1146
   2615 H           7.6095   27.5600   12.6157 H     654  UNL654      0.1146
   2616 H           6.3637   26.7903   11.9054 H     654  UNL654      0.1146
   2617 N           6.4968   27.4970   14.4693 N.3   655  UNL655     -0.3437
   2618 H           6.0551   27.7876   15.3404 H     655  UNL655      0.1146
   2619 H           7.2224   28.1866   14.2786 H     655  UNL655      0.1146
   2620 H           6.9843   26.6269   14.6782 H     655  UNL655      0.1146
   2621 N           6.4968   27.3629   17.1354 N.3   656  UNL656     -0.3437
   2622 H           6.0551   27.8868   16.3813 H     656  UNL656      0.1146
   2623 H           7.2224   26.7974   16.6971 H     656  UNL656      0.1146
   2624 H           6.9843   28.0509   17.7075 H     656  UNL656      0.1146
   2625 N           6.4968   27.4970   19.0467 N.3   657  UNL657     -0.3437
   2626 H           6.0551   27.7876   19.9178 H     657  UNL657      0.1146
   2627 H           7.2224   28.1866   18.8560 H     657  UNL657      0.1146
   2628 H           6.9843   26.6269   19.2556 H     657  UNL657      0.1146
   2629 N           6.7340   27.3058   21.3639 N.3   658  UNL658     -0.3437
   2630 H           5.7895   27.3078   21.7464 H     658  UNL658      0.1146
   2631 H           6.8736   28.2290   20.9556 H     658  UNL658      0.1146
   2632 H           7.3614   27.2554   22.1652 H     658  UNL658      0.1146
   2633 N           6.4968   27.4970   23.6241 N.3   659  UNL659     -0.3437
   2634 H           6.0551   27.7876   24.4952 H     659  UNL659      0.1146
   2635 H           7.2224   28.1866   23.4334 H     659  UNL659      0.1146
   2636 H           6.9843   26.6269   23.8330 H     659  UNL659      0.1146
   2637 N           6.4968   27.4970   25.9128 N.3   660  UNL660     -0.3437
   2638 H           6.0551   27.7876   26.7840 H     660  UNL660      0.1146
   2639 H           7.2224   28.1866   25.7221 H     660  UNL660      0.1146
   2640 H           6.9843   26.6269   26.1217 H     660  UNL660      0.1146
   2641 N           6.4130   27.5140   29.3203 N.3   661  UNL661     -0.3437
   2642 H           6.5507   26.9204   30.1370 H     661  UNL661      0.1146
   2643 H           6.6921   28.4519   29.6044 H     661  UNL661      0.1146
   2644 H           7.1027   27.2116   28.6338 H     661  UNL661      0.1146
   2645 N           6.4968   30.9408    0.7370 N.3   662  UNL662     -0.3437
   2646 H           6.0551   31.2314    1.6081 H     662  UNL662      0.1146
   2647 H           7.2224   31.6304    0.5463 H     662  UNL662      0.1146
   2648 H           6.9843   30.0707    0.9459 H     662  UNL662      0.1146
   2649 N           6.4968   30.9408    3.0257 N.3   663  UNL663     -0.3437
   2650 H           6.0551   31.2314    3.8968 H     663  UNL663      0.1146
   2651 H           7.2224   31.6304    2.8350 H     663  UNL663      0.1146
   2652 H           6.9843   30.0707    3.2346 H     663  UNL663      0.1146
   2653 N           6.4968   30.9408    5.3144 N.3   664  UNL664     -0.3437
   2654 H           6.0551   31.2314    6.1855 H     664  UNL664      0.1146
   2655 H           7.2224   31.6304    5.1237 H     664  UNL664      0.1146
   2656 H           6.9843   30.0707    5.5233 H     664  UNL664      0.1146
   2657 N           6.4968   29.9408    7.6031 N.3   665  UNL665     -0.3437
   2658 H           6.0551   30.2314    8.4742 H     665  UNL665      0.1146
   2659 H           7.2224   30.6304    7.4124 H     665  UNL665      0.1146
   2660 H           6.9843   29.0707    7.8120 H     665  UNL665      0.1146
   2661 N           6.4968   30.9408    9.8918 N.3   666  UNL666     -0.3437
   2662 H           6.0551   31.2314   10.7629 H     666  UNL666      0.1146
   2663 H           7.2224   31.6304    9.7011 H     666  UNL666      0.1146
   2664 H           6.9843   30.0707   10.1007 H     666  UNL666      0.1146
   2665 N           6.4968   30.9408   12.1806 N.3   667  UNL667     -0.3437
   2666 H           6.0551   31.2314   13.0517 H     667  UNL667      0.1146
   2667 H           7.2224   31.6304   11.9899 H     667  UNL667      0.1146
   2668 H           6.9843   30.0707   12.3895 H     667  UNL667      0.1146
   2669 N           6.6745   31.1952   14.5027 N.3   668  UNL668     -0.3437
   2670 H           5.8684   31.1453   15.1242 H     668  UNL668      0.1146
   2671 H           7.4932   31.2400   15.1077 H     668  UNL668      0.1146
   2672 H           6.7223   30.2928   14.0318 H     668  UNL668      0.1146
   2673 N           6.4968   30.9408   16.7580 N.3   669  UNL669     -0.3437
   2674 H           6.0551   31.2314   17.6291 H     669  UNL669      0.1146
   2675 H           7.2224   31.6304   16.5673 H     669  UNL669      0.1146
   2676 H           6.9843   30.0707   16.9669 H     669  UNL669      0.1146
   2677 N           6.4968   30.9408   19.0467 N.3   670  UNL670     -0.3437
   2678 H           6.0551   31.2314   19.9178 H     670  UNL670      0.1146
   2679 H           7.2224   31.6304   18.8560 H     670  UNL670      0.1146
   2680 H           6.9843   30.0707   19.2556 H     670  UNL670      0.1146
   2681 N           6.4968   30.9408   21.3354 N.3   671  UNL671     -0.3437
   2682 H           6.0551   31.2314   22.2065 H     671  UNL671      0.1146
   2683 H           7.2224   31.6304   21.1447 H     671  UNL671      0.1146
   2684 H           6.9843   30.0707   21.5443 H     671  UNL671      0.1146
   2685 N           6.6866   30.7107   23.7016 N.3   672  UNL672     -0.3437
   2686 H           5.7521   31.0854   23.8585 H     672  UNL672      0.1146
   2687 H           7.2005   31.4367   23.2043 H     672  UNL672      0.1146
   2688 H           7.1192   30.6405   24.6215 H     672  UNL672      0.1146
   2689 N           6.4968   30.9408   25.9128 N.3   673  UNL673     -0.3437
   2690 H           6.0551   31.2314   26.7840 H     673  UNL673      0.1146
   2691 H           7.2224   31.6304   25.7221 H     673  UNL673      0.1146
   2692 H           6.9843   30.0707   26.1217 H     673  UNL673      0.1146
   2693 N           6.4968   29.9408   28.2016 N.3   674  UNL674     -0.3437
   2694 H           6.0551   30.2314   29.0727 H     674  UNL674      0.1146
   2695 H           7.2224   30.6304   28.0109 H     674  UNL674      0.1146
   2696 H           6.9843   29.0707   28.4105 H     674  UNL674      0.1146
   2697 N           8.6909    0.4810    1.1144 N.3   675  UNL675     -0.3437
   2698 H           8.2492    1.0050    0.3603 H     675  UNL675      0.1146
   2699 H           9.4165   -0.0845    0.6761 H     675  UNL675      0.1146
   2700 H           9.1784    1.1691    1.6865 H     675  UNL675      0.1146
   2701 N           8.8210    0.6151    3.5356 N.3   676  UNL676     -0.3437
   2702 H           9.7833    0.9057    3.3681 H     676  UNL676      0.1146
   2703 H           8.2340    1.3047    3.0684 H     676  UNL676      0.1146
   2704 H           8.6967   -0.2550    3.0200 H     676  UNL676      0.1146
   2705 N           8.6909    0.6151    5.3144 N.3   677  UNL677     -0.3437
   2706 H           8.2492    0.9057    6.1855 H     677  UNL677      0.1146
   2707 H           9.4165    1.3047    5.1237 H     677  UNL677      0.1146
   2708 H           9.1784   -0.2550    5.5233 H     677  UNL677      0.1146
   2709 N           8.6909    0.4810    7.9806 N.3   678  UNL678     -0.3437
   2710 H           8.2492    1.0050    7.2264 H     678  UNL678      0.1146
   2711 H           9.4165   -0.0845    7.5422 H     678  UNL678      0.1146
   2712 H           9.1784    1.1691    8.5526 H     678  UNL678      0.1146
   2713 N           8.8210    0.6151   10.4017 N.3   679  UNL679     -0.3437
   2714 H           9.7833    0.9057   10.2343 H     679  UNL679      0.1146
   2715 H           8.2340    1.3047    9.9345 H     679  UNL679      0.1146
   2716 H           8.6967   -0.2550    9.8861 H     679  UNL679      0.1146
   2717 N           8.6909    0.6151   12.1806 N.3   680  UNL680     -0.3437
   2718 H           8.2492    0.9057   13.0517 H     680  UNL680      0.1146
   2719 H           9.4165    1.3047   11.9899 H     680  UNL680      0.1146
   2720 H           9.1784   -0.2550   12.3895 H     680  UNL680      0.1146
   2721 N           8.8975    0.8305   14.4638 N.3   681  UNL681     -0.3437
   2722 H           8.2760    1.1534   15.2040 H     681  UNL681      0.1146
   2723 H           9.8036    0.6782   14.9044 H     681  UNL681      0.1146
   2724 H           8.5578   -0.0916   14.1941 H     681  UNL681      0.1146
   2725 N           8.8975    0.8305   16.7525 N.3   682  UNL682     -0.3437
   2726 H           8.2760    1.1534   17.4928 H     682  UNL682      0.1146
   2727 H           9.8036    0.6782   17.1931 H     682  UNL682      0.1146
   2728 H           8.5578   -0.0916   16.4829 H     682  UNL682      0.1146
   2729 N           8.8975    0.8305   19.0413 N.3   683  UNL683     -0.3437
   2730 H           8.2760    1.1534   19.7815 H     683  UNL683      0.1146
   2731 H           9.8036    0.6782   19.4818 H     683  UNL683      0.1146
   2732 H           8.5578   -0.0916   18.7716 H     683  UNL683      0.1146
   2733 N           8.8975    0.8305   21.3300 N.3   684  UNL684     -0.3437
   2734 H           8.2760    1.1534   22.0702 H     684  UNL684      0.1146
   2735 H           9.8036    0.6782   21.7705 H     684  UNL684      0.1146
   2736 H           8.5578   -0.0916   21.0603 H     684  UNL684      0.1146
   2737 N           8.6909    0.6151   23.6241 N.3   685  UNL685     -0.3437
   2738 H           8.2492    0.9057   24.4952 H     685  UNL685      0.1146
   2739 H           9.4165    1.3047   23.4334 H     685  UNL685      0.1146
   2740 H           9.1784   -0.2550   23.8330 H     685  UNL685      0.1146
   2741 N           8.6909    0.4810   26.2903 N.3   686  UNL686     -0.3437
   2742 H           8.2492    1.0050   25.5361 H     686  UNL686      0.1146
   2743 H           9.4165   -0.0845   25.8519 H     686  UNL686      0.1146
   2744 H           9.1784    1.1691   26.8623 H     686  UNL686      0.1146
   2745 N           8.6071    0.6321   29.3203 N.3   687  UNL687     -0.3437
   2746 H           8.7448    0.0386   30.1370 H     687  UNL687      0.1146
   2747 H           8.8862    1.5701   29.6044 H     687  UNL687      0.1146
   2748 H           9.2969    0.3298   28.6338 H     687  UNL687      0.1146
   2749 N           8.6909    3.2810    1.0703 N.3   688  UNL688     -0.3437
   2750 H           8.2492    2.4092    0.7818 H     688  UNL688      0.1146
   2751 H           9.4165    3.0211    1.7369 H     688  UNL688      0.1146
   2752 H           9.1784    3.6344    0.2482 H     688  UNL688      0.1146
   2753 N           8.6909    3.0589    3.0257 N.3   689  UNL689     -0.3437
   2754 H           8.2492    3.3495    3.8968 H     689  UNL689      0.1146
   2755 H           9.4165    3.7485    2.8350 H     689  UNL689      0.1146
   2756 H           9.1784    2.1888    3.2346 H     689  UNL689      0.1146
   2757 N           8.6909    2.9248    5.6918 N.3   690  UNL690     -0.3437
   2758 H           8.2492    3.4488    4.9377 H     690  UNL690      0.1146
   2759 H           9.4165    2.3593    5.2535 H     690  UNL690      0.1146
   2760 H           9.1784    3.6129    6.2639 H     690  UNL690      0.1146
   2761 N           8.6909    3.2810    7.9365 N.3   691  UNL691     -0.3437
   2762 H           8.2492    2.4092    7.6479 H     691  UNL691      0.1146
   2763 H           9.4165    3.0211    8.6031 H     691  UNL691      0.1146
   2764 H           9.1784    3.6344    7.1144 H     691  UNL691      0.1146
   2765 N           8.6909    3.2810   10.2252 N.3   692  UNL692     -0.3437
   2766 H           8.2492    2.4092    9.9367 H     692  UNL692      0.1146
   2767 H           9.4165    3.0211   10.8918 H     692  UNL692      0.1146
   2768 H           9.1784    3.6344    9.4031 H     692  UNL692      0.1146
   2769 N           8.6544    2.9661   12.2604 N.3   693  UNL693     -0.3437
   2770 H           8.7822    2.5829   13.1959 H     693  UNL693      0.1146
   2771 H           8.5593    3.9736   12.3801 H     693  UNL693      0.1146
   2772 H           9.5390    2.8232   11.7751 H     693  UNL693      0.1146
   2773 N           8.6544    2.9661   14.5491 N.3   694  UNL694     -0.3437
   2774 H           8.7822    2.5829   15.4846 H     694  UNL694      0.1146
   2775 H           8.5593    3.9736   14.6688 H     694  UNL694      0.1146
   2776 H           9.5390    2.8232   14.0639 H     694  UNL694      0.1146
   2777 N           8.6909    3.2810   17.0913 N.3   695  UNL695     -0.3437
   2778 H           8.2492    2.4092   16.8028 H     695  UNL695      0.1146
   2779 H           9.4165    3.0211   17.7579 H     695  UNL695      0.1146
   2780 H           9.1784    3.6344   16.2692 H     695  UNL695      0.1146
   2781 N           8.6909    3.0589   19.0467 N.3   696  UNL696     -0.3437
   2782 H           8.2492    3.3495   19.9178 H     696  UNL696      0.1146
   2783 H           9.4165    3.7485   18.8560 H     696  UNL696      0.1146
   2784 H           9.1784    2.1888   19.2556 H     696  UNL696      0.1146
   2785 N           8.8975    3.2743   21.3300 N.3   697  UNL697     -0.3437
   2786 H           8.2760    3.5972   22.0702 H     697  UNL697      0.1146
   2787 H           9.8036    3.1220   21.7705 H     697  UNL697      0.1146
   2788 H           8.5578    2.3523   21.0603 H     697  UNL697      0.1146
   2789 N           8.8975    3.2743   23.6187 N.3   698  UNL698     -0.3437
   2790 H           8.2760    3.5972   24.3589 H     698  UNL698      0.1146
   2791 H           9.8036    3.1220   24.0592 H     698  UNL698      0.1146
   2792 H           8.5578    2.3523   23.3490 H     698  UNL698      0.1146
   2793 N           8.6909    3.0589   25.9128 N.3   699  UNL699     -0.3437
   2794 H           8.2492    3.3495   26.7840 H     699  UNL699      0.1146
   2795 H           9.4165    3.7485   25.7221 H     699  UNL699      0.1146
   2796 H           9.1784    2.1888   26.1217 H     699  UNL699      0.1146
   2797 N           8.6071    3.0759   29.3203 N.3   700  UNL700     -0.3437
   2798 H           8.7448    2.4824   30.1370 H     700  UNL700      0.1146
   2799 H           8.8862    4.0139   29.6044 H     700  UNL700      0.1146
   2800 H           9.2969    2.7736   28.6338 H     700  UNL700      0.1146
   2801 N           8.6909    5.5027    0.7370 N.3   701  UNL701     -0.3437
   2802 H           8.2492    5.7933    1.6081 H     701  UNL701      0.1146
   2803 H           9.4165    6.1923    0.5463 H     701  UNL701      0.1146
   2804 H           9.1784    4.6326    0.9459 H     701  UNL701      0.1146
   2805 N           8.6909    5.3686    3.4031 N.3   702  UNL702     -0.3437
   2806 H           8.2492    5.8926    2.6490 H     702  UNL702      0.1146
   2807 H           9.4165    4.8031    2.9648 H     702  UNL702      0.1146
   2808 H           9.1784    6.0567    3.9752 H     702  UNL702      0.1146
   2809 N           8.6909    5.5027    5.3144 N.3   703  UNL703     -0.3437
   2810 H           8.2492    5.7933    6.1855 H     703  UNL703      0.1146
   2811 H           9.4165    6.1923    5.1237 H     703  UNL703      0.1146
   2812 H           9.1784    4.6326    5.5233 H     703  UNL703      0.1146
   2813 N           8.6909    5.5027    7.6031 N.3   704  UNL704     -0.3437
   2814 H           8.2492    5.7933    8.4742 H     704  UNL704      0.1146
   2815 H           9.4165    6.1923    7.4124 H     704  UNL704      0.1146
   2816 H           9.1784    4.6326    7.8120 H     704  UNL704      0.1146
   2817 N           8.6909    5.5027    9.8918 N.3   705  UNL705     -0.3437
   2818 H           8.2492    5.7933   10.7629 H     705  UNL705      0.1146
   2819 H           9.4165    6.1923    9.7011 H     705  UNL705      0.1146
   2820 H           9.1784    4.6326   10.1007 H     705  UNL705      0.1146
   2821 N           8.6909    5.5027   12.1806 N.3   706  UNL706     -0.3437
   2822 H           8.2492    5.7933   13.0517 H     706  UNL706      0.1146
   2823 H           9.4165    6.1923   11.9899 H     706  UNL706      0.1146
   2824 H           9.1784    4.6326   12.3895 H     706  UNL706      0.1146
   2825 N           8.6909    5.5027   14.4693 N.3   707  UNL707     -0.3437
   2826 H           8.2492    5.7933   15.3404 H     707  UNL707      0.1146
   2827 H           9.4165    6.1923   14.2786 H     707  UNL707      0.1146
   2828 H           9.1784    4.6326   14.6782 H     707  UNL707      0.1146
   2829 N           8.6909    5.5027   16.7580 N.3   708  UNL708     -0.3437
   2830 H           8.2492    5.7933   17.6291 H     708  UNL708      0.1146
   2831 H           9.4165    6.1923   16.5673 H     708  UNL708      0.1146
   2832 H           9.1784    4.6326   16.9669 H     708  UNL708      0.1146
   2833 N           8.6909    5.3686   19.4241 N.3   709  UNL709     -0.3437
   2834 H           8.2492    5.8926   18.6700 H     709  UNL709      0.1146
   2835 H           9.4165    4.8031   18.9858 H     709  UNL709      0.1146
   2836 H           9.1784    6.0567   19.9962 H     709  UNL709      0.1146
   2837 N           8.6909    5.5027   21.3354 N.3   710  UNL710     -0.3437
   2838 H           8.2492    5.7933   22.2065 H     710  UNL710      0.1146
   2839 H           9.4165    6.1923   21.1447 H     710  UNL710      0.1146
   2840 H           9.1784    4.6326   21.5443 H     710  UNL710      0.1146
   2841 N           8.6544    5.4099   23.7040 N.3   711  UNL711     -0.3437
   2842 H           8.7822    5.0267   24.6395 H     711  UNL711      0.1146
   2843 H           8.5593    6.4174   23.8237 H     711  UNL711      0.1146
   2844 H           9.5390    5.2670   23.2187 H     711  UNL711      0.1146
   2845 N           8.6544    5.4099   25.9927 N.3   712  UNL712     -0.3437
   2846 H           8.7822    5.0267   26.9282 H     712  UNL712      0.1146
   2847 H           8.5593    6.4174   26.1124 H     712  UNL712      0.1146
   2848 H           9.5390    5.2670   25.5074 H     712  UNL712      0.1146
   2849 N           8.6071    5.5197   29.3203 N.3   713  UNL713     -0.3437
   2850 H           8.7448    4.9262   30.1370 H     713  UNL713      0.1146
   2851 H           8.8862    6.4577   29.6044 H     713  UNL713      0.1146
   2852 H           9.2969    5.2174   28.6338 H     713  UNL713      0.1146
   2853 N           8.6909    8.1686    1.0703 N.3   714  UNL714     -0.3437
   2854 H           8.2492    7.2968    0.7818 H     714  UNL714      0.1146
   2855 H           9.4165    7.9087    1.7369 H     714  UNL714      0.1146
   2856 H           9.1784    8.5220    0.2482 H     714  UNL714      0.1146
   2857 N           8.6909    7.9465    3.0257 N.3   715  UNL715     -0.3437
   2858 H           8.2492    8.2371    3.8968 H     715  UNL715      0.1146
   2859 H           9.4165    8.6361    2.8350 H     715  UNL715      0.1146
   2860 H           9.1784    7.0764    3.2346 H     715  UNL715      0.1146
   2861 N           8.6909    7.8124    5.6918 N.3   716  UNL716     -0.3437
   2862 H           8.2492    8.3364    4.9377 H     716  UNL716      0.1146
   2863 H           9.4165    7.2469    5.2535 H     716  UNL716      0.1146
   2864 H           9.1784    8.5005    6.2639 H     716  UNL716      0.1146
   2865 N           8.6909    8.1686    7.9365 N.3   717  UNL717     -0.3437
   2866 H           8.2492    7.2968    7.6479 H     717  UNL717      0.1146
   2867 H           9.4165    7.9087    8.6031 H     717  UNL717      0.1146
   2868 H           9.1784    8.5220    7.1144 H     717  UNL717      0.1146
   2869 N           8.6909    8.1686   10.2252 N.3   718  UNL718     -0.3437
   2870 H           8.2492    7.2968    9.9367 H     718  UNL718      0.1146
   2871 H           9.4165    7.9087   10.8918 H     718  UNL718      0.1146
   2872 H           9.1784    8.5220    9.4031 H     718  UNL718      0.1146
   2873 N           8.6909    8.1686   12.5139 N.3   719  UNL719     -0.3437
   2874 H           8.2492    7.2968   12.2254 H     719  UNL719      0.1146
   2875 H           9.4165    7.9087   13.1805 H     719  UNL719      0.1146
   2876 H           9.1784    8.5220   11.6918 H     719  UNL719      0.1146
   2877 N           8.6909    8.1686   14.8026 N.3   720  UNL720     -0.3437
   2878 H           8.2492    7.2968   14.5141 H     720  UNL720      0.1146
   2879 H           9.4165    7.9087   15.4692 H     720  UNL720      0.1146
   2880 H           9.1784    8.5220   13.9805 H     720  UNL720      0.1146
   2881 N           8.6909    8.1686   17.0913 N.3   721  UNL721     -0.3437
   2882 H           8.2492    7.2968   16.8028 H     721  UNL721      0.1146
   2883 H           9.4165    7.9087   17.7579 H     721  UNL721      0.1146
   2884 H           9.1784    8.5220   16.2692 H     721  UNL721      0.1146
   2885 N           8.6909    8.1686   19.3800 N.3   722  UNL722     -0.3437
   2886 H           8.2492    7.2968   19.0915 H     722  UNL722      0.1146
   2887 H           9.4165    7.9087   20.0466 H     722  UNL722      0.1146
   2888 H           9.1784    8.5220   18.5579 H     722  UNL722      0.1146
   2889 N           8.6909    8.1686   21.6687 N.3   723  UNL723     -0.3437
   2890 H           8.2492    7.2968   21.3802 H     723  UNL723      0.1146
   2891 H           9.4165    7.9087   22.3353 H     723  UNL723      0.1146
   2892 H           9.1784    8.5220   20.8466 H     723  UNL723      0.1146
   2893 N           8.6909    8.1686   23.9575 N.3   724  UNL724     -0.3437
   2894 H           8.2492    7.2968   23.6690 H     724  UNL724      0.1146
   2895 H           9.4165    7.9087   24.6241 H     724  UNL724      0.1146
   2896 H           9.1784    8.5220   23.1354 H     724  UNL724      0.1146
   2897 N           8.6909    8.1686   26.2462 N.3   725  UNL725     -0.3437
   2898 H           8.2492    7.2968   25.9577 H     725  UNL725      0.1146
   2899 H           9.4165    7.9087   26.9128 H     725  UNL725      0.1146
   2900 H           9.1784    8.5220   25.4241 H     725  UNL725      0.1146
   2901 N           8.6071    7.9635   29.3203 N.3   726  UNL726     -0.3437
   2902 H           8.7448    7.3700   30.1370 H     726  UNL726      0.1146
   2903 H           8.8862    8.9015   29.6044 H     726  UNL726      0.1146
   2904 H           9.2969    7.6612   28.6338 H     726  UNL726      0.1146
   2905 N           8.6909   10.6125    1.0703 N.3   727  UNL727     -0.3437
   2906 H           8.2492    9.7407    0.7818 H     727  UNL727      0.1146
   2907 H           9.4165   10.3525    1.7369 H     727  UNL727      0.1146
   2908 H           9.1784   10.9658    0.2482 H     727  UNL727      0.1146
   2909 N           8.6544   10.2975    3.1055 N.3   728  UNL728     -0.3437
   2910 H           8.7822    9.9143    4.0410 H     728  UNL728      0.1146
   2911 H           8.5593   11.3050    3.2252 H     728  UNL728      0.1146
   2912 H           9.5390   10.1547    2.6203 H     728  UNL728      0.1146
   2913 N           8.6909   10.2562    5.6918 N.3   729  UNL729     -0.3437
   2914 H           8.2492   10.7802    4.9377 H     729  UNL729      0.1146
   2915 H           9.4165    9.6907    5.2535 H     729  UNL729      0.1146
   2916 H           9.1784   10.9443    6.2639 H     729  UNL729      0.1146
   2917 N           8.8210   10.3903    8.1130 N.3   730  UNL730     -0.3437
   2918 H           9.7833   10.6809    7.9456 H     730  UNL730      0.1146
   2919 H           8.2340   11.0799    7.6458 H     730  UNL730      0.1146
   2920 H           8.6967    9.5202    7.5974 H     730  UNL730      0.1146
   2921 N           8.6909   10.6125   10.2252 N.3   731  UNL731     -0.3437
   2922 H           8.2492    9.7407    9.9367 H     731  UNL731      0.1146
   2923 H           9.4165   10.3525   10.8918 H     731  UNL731      0.1146
   2924 H           9.1784   10.9658    9.4031 H     731  UNL731      0.1146
   2925 N           8.6909   10.6125   12.5139 N.3   732  UNL732     -0.3437
   2926 H           8.2492    9.7407   12.2254 H     732  UNL732      0.1146
   2927 H           9.4165   10.3525   13.1805 H     732  UNL732      0.1146
   2928 H           9.1784   10.9658   11.6918 H     732  UNL732      0.1146
   2929 N           8.6909   10.6125   14.8026 N.3   733  UNL733     -0.3437
   2930 H           8.2492    9.7407   14.5141 H     733  UNL733      0.1146
   2931 H           9.4165   10.3525   15.4692 H     733  UNL733      0.1146
   2932 H           9.1784   10.9658   13.9805 H     733  UNL733      0.1146
   2933 N           8.6909   10.6125   17.0913 N.3   734  UNL734     -0.3437
   2934 H           8.2492    9.7407   16.8028 H     734  UNL734      0.1146
   2935 H           9.4165   10.3525   17.7579 H     734  UNL734      0.1146
   2936 H           9.1784   10.9658   16.2692 H     734  UNL734      0.1146
   2937 N           8.6909   10.6125   19.3800 N.3   735  UNL735     -0.3437
   2938 H           8.2492    9.7407   19.0915 H     735  UNL735      0.1146
   2939 H           9.4165   10.3525   20.0466 H     735  UNL735      0.1146
   2940 H           9.1784   10.9658   18.5579 H     735  UNL735      0.1146
   2941 N           8.6909   10.3903   21.3354 N.3   736  UNL736     -0.3437
   2942 H           8.2492   10.6809   22.2065 H     736  UNL736      0.1146
   2943 H           9.4165   11.0799   21.1447 H     736  UNL736      0.1146
   2944 H           9.1784    9.5202   21.5443 H     736  UNL736      0.1146
   2945 N           8.8975   10.6058   23.6187 N.3   737  UNL737     -0.3437
   2946 H           8.2760   10.9286   24.3589 H     737  UNL737      0.1146
   2947 H           9.8036   10.4534   24.0592 H     737  UNL737      0.1146
   2948 H           8.5578    9.6837   23.3490 H     737  UNL737      0.1146
   2949 N           8.6544   10.2975   25.9927 N.3   738  UNL738     -0.3437
   2950 H           8.7822    9.9143   26.9282 H     738  UNL738      0.1146
   2951 H           8.5593   11.3050   26.1124 H     738  UNL738      0.1146
   2952 H           9.5390   10.1547   25.5074 H     738  UNL738      0.1146
   2953 N           8.6071   10.4074   29.3203 N.3   739  UNL739     -0.3437
   2954 H           8.7448    9.8138   30.1370 H     739  UNL739      0.1146
   2955 H           8.8862   11.3453   29.6044 H     739  UNL739      0.1146
   2956 H           9.2969   10.1050   28.6338 H     739  UNL739      0.1146
   2957 N           8.6909   13.0563    1.0703 N.3   740  UNL740     -0.3437
   2958 H           8.2492   12.1845    0.7818 H     740  UNL740      0.1146
   2959 H           9.4165   12.7963    1.7369 H     740  UNL740      0.1146
   2960 H           9.1784   13.4096    0.2482 H     740  UNL740      0.1146
   2961 N           8.6909   13.0563    3.3590 N.3   741  UNL741     -0.3437
   2962 H           8.2492   12.1845    3.0705 H     741  UNL741      0.1146
   2963 H           9.4165   12.7963    4.0256 H     741  UNL741      0.1146
   2964 H           9.1784   13.4096    2.5369 H     741  UNL741      0.1146
   2965 N           8.6909   13.0563    5.6477 N.3   742  UNL742     -0.3437
   2966 H           8.2492   12.1845    5.3592 H     742  UNL742      0.1146
   2967 H           9.4165   12.7963    6.3143 H     742  UNL742      0.1146
   2968 H           9.1784   13.4096    4.8256 H     742  UNL742      0.1146
   2969 N           8.6909   13.0563    7.9365 N.3   743  UNL743     -0.3437
   2970 H           8.2492   12.1845    7.6479 H     743  UNL743      0.1146
   2971 H           9.4165   12.7963    8.6031 H     743  UNL743      0.1146
   2972 H           9.1784   13.4096    7.1144 H     743  UNL743      0.1146
   2973 N           8.6909   13.0563   10.2252 N.3   744  UNL744     -0.3437
   2974 H           8.2492   12.1845    9.9367 H     744  UNL744      0.1146
   2975 H           9.4165   12.7963   10.8918 H     744  UNL744      0.1146
   2976 H           9.1784   13.4096    9.4031 H     744  UNL744      0.1146
   2977 N           8.6909   12.8341   12.1806 N.3   745  UNL745     -0.3437
   2978 H           8.2492   13.1247   13.0517 H     745  UNL745      0.1146
   2979 H           9.4165   13.5237   11.9899 H     745  UNL745      0.1146
   2980 H           9.1784   11.9640   12.3895 H     745  UNL745      0.1146
   2981 N           8.8975   13.0496   14.4638 N.3   746  UNL746     -0.3437
   2982 H           8.2760   13.3724   15.2040 H     746  UNL746      0.1146
   2983 H           9.8036   12.8972   14.9044 H     746  UNL746      0.1146
   2984 H           8.5578   12.1275   14.1941 H     746  UNL746      0.1146
   2985 N           8.8975   13.0496   16.7525 N.3   747  UNL747     -0.3437
   2986 H           8.2760   13.3724   17.4928 H     747  UNL747      0.1146
   2987 H           9.8036   12.8972   17.1931 H     747  UNL747      0.1146
   2988 H           8.5578   12.1275   16.4829 H     747  UNL747      0.1146
   2989 N           8.8975   13.0496   19.0413 N.3   748  UNL748     -0.3437
   2990 H           8.2760   13.3724   19.7815 H     748  UNL748      0.1146
   2991 H           9.8036   12.8972   19.4818 H     748  UNL748      0.1146
   2992 H           8.5578   12.1275   18.7716 H     748  UNL748      0.1146
   2993 N           8.6909   12.8341   21.3354 N.3   749  UNL749     -0.3437
   2994 H           8.2492   13.1247   22.2065 H     749  UNL749      0.1146
   2995 H           9.4165   13.5237   21.1447 H     749  UNL749      0.1146
   2996 H           9.1784   11.9640   21.5443 H     749  UNL749      0.1146
   2997 N           8.6909   12.7000   24.0016 N.3   750  UNL750     -0.3437
   2998 H           8.2492   13.2240   23.2474 H     750  UNL750      0.1146
   2999 H           9.4165   12.1345   23.5632 H     750  UNL750      0.1146
   3000 H           9.1784   13.3881   24.5736 H     750  UNL750      0.1146
   3001 N           8.8210   12.8341   26.4227 N.3   751  UNL751     -0.3437
   3002 H           9.7833   13.1247   26.2553 H     751  UNL751      0.1146
   3003 H           8.2340   13.5237   25.9555 H     751  UNL751      0.1146
   3004 H           8.6967   11.9640   25.9071 H     751  UNL751      0.1146
   3005 N           8.6071   12.8512   29.3203 N.3   752  UNL752     -0.3437
   3006 H           8.7448   12.2576   30.1370 H     752  UNL752      0.1146
   3007 H           8.8862   13.7891   29.6044 H     752  UNL752      0.1146
   3008 H           9.2969   12.5488   28.6338 H     752  UNL752      0.1146
   3009 N           8.6909   15.5001    1.0703 N.3   753  UNL753     -0.3437
   3010 H           8.2492   14.6283    0.7818 H     753  UNL753      0.1146
   3011 H           9.4165   15.2401    1.7369 H     753  UNL753      0.1146
   3012 H           9.1784   15.8534    0.2482 H     753  UNL753      0.1146
   3013 N           8.6909   15.2779    3.0257 N.3   754  UNL754     -0.3437
   3014 H           8.2492   15.5685    3.8968 H     754  UNL754      0.1146
   3015 H           9.4165   15.9675    2.8350 H     754  UNL754      0.1146
   3016 H           9.1784   14.4078    3.2346 H     754  UNL754      0.1146
   3017 N           8.6544   15.1851    5.3942 N.3   755  UNL755     -0.3437
   3018 H           8.7822   14.8019    6.3298 H     755  UNL755      0.1146
   3019 H           8.5593   16.1926    5.5140 H     755  UNL755      0.1146
   3020 H           9.5390   15.0423    4.9090 H     755  UNL755      0.1146
   3021 N           8.6909   15.5001    7.9365 N.3   756  UNL756     -0.3437
   3022 H           8.2492   14.6283    7.6479 H     756  UNL756      0.1146
   3023 H           9.4165   15.2401    8.6031 H     756  UNL756      0.1146
   3024 H           9.1784   15.8534    7.1144 H     756  UNL756      0.1146
   3025 N           8.6909   15.2779    9.8918 N.3   757  UNL757     -0.3437
   3026 H           8.2492   15.5685   10.7629 H     757  UNL757      0.1146
   3027 H           9.4165   15.9675    9.7011 H     757  UNL757      0.1146
   3028 H           9.1784   14.4078   10.1007 H     757  UNL757      0.1146
   3029 N           8.6909   15.1438   12.5580 N.3   758  UNL758     -0.3437
   3030 H           8.2492   15.6678   11.8039 H     758  UNL758      0.1146
   3031 H           9.4165   14.5784   12.1196 H     758  UNL758      0.1146
   3032 H           9.1784   15.8319   13.1301 H     758  UNL758      0.1146
   3033 N           8.6909   15.5001   14.8026 N.3   759  UNL759     -0.3437
   3034 H           8.2492   14.6283   14.5141 H     759  UNL759      0.1146
   3035 H           9.4165   15.2401   15.4692 H     759  UNL759      0.1146
   3036 H           9.1784   15.8534   13.9805 H     759  UNL759      0.1146
   3037 N           8.6909   15.5001   17.0913 N.3   760  UNL760     -0.3437
   3038 H           8.2492   14.6283   16.8028 H     760  UNL760      0.1146
   3039 H           9.4165   15.2401   17.7579 H     760  UNL760      0.1146
   3040 H           9.1784   15.8534   16.2692 H     760  UNL760      0.1146
   3041 N           8.6909   15.2779   19.0467 N.3   761  UNL761     -0.3437
   3042 H           8.2492   15.5685   19.9178 H     761  UNL761      0.1146
   3043 H           9.4165   15.9675   18.8560 H     761  UNL761      0.1146
   3044 H           9.1784   14.4078   19.2556 H     761  UNL761      0.1146
   3045 N           8.9281   15.0868   21.3639 N.3   762  UNL762     -0.3437
   3046 H           7.9836   15.0888   21.7464 H     762  UNL762      0.1146
   3047 H           9.0677   16.0100   20.9556 H     762  UNL762      0.1146
   3048 H           9.5555   15.0363   22.1652 H     762  UNL762      0.1146
   3049 N           8.6909   15.5001   23.9575 N.3   763  UNL763     -0.3437
   3050 H           8.2492   14.6283   23.6690 H     763  UNL763      0.1146
   3051 H           9.4165   15.2401   24.6241 H     763  UNL763      0.1146
   3052 H           9.1784   15.8534   23.1354 H     763  UNL763      0.1146
   3053 N           8.6909   15.5001   26.2462 N.3   764  UNL764     -0.3437
   3054 H           8.2492   14.6283   25.9577 H     764  UNL764      0.1146
   3055 H           9.4165   15.2401   26.9128 H     764  UNL764      0.1146
   3056 H           9.1784   15.8534   25.4241 H     764  UNL764      0.1146
   3057 N           8.6071   15.2950   29.3203 N.3   765  UNL765     -0.3437
   3058 H           8.7448   14.7014   30.1370 H     765  UNL765      0.1146
   3059 H           8.8862   16.2329   29.6044 H     765  UNL765      0.1146
   3060 H           9.2969   14.9926   28.6338 H     765  UNL765      0.1146
   3061 N           8.6909   17.7217    0.7370 N.3   766  UNL766     -0.3437
   3062 H           8.2492   18.0123    1.6081 H     766  UNL766      0.1146
   3063 H           9.4165   18.4114    0.5463 H     766  UNL766      0.1146
   3064 H           9.1784   16.8517    0.9459 H     766  UNL766      0.1146
   3065 N           8.6909   17.5876    3.4031 N.3   767  UNL767     -0.3437
   3066 H           8.2492   18.1116    2.6490 H     767  UNL767      0.1146
   3067 H           9.4165   17.0222    2.9648 H     767  UNL767      0.1146
   3068 H           9.1784   18.2757    3.9752 H     767  UNL767      0.1146
   3069 N           8.6909   17.7217    5.3144 N.3   768  UNL768     -0.3437
   3070 H           8.2492   18.0123    6.1855 H     768  UNL768      0.1146
   3071 H           9.4165   18.4114    5.1237 H     768  UNL768      0.1146
   3072 H           9.1784   16.8517    5.5233 H     768  UNL768      0.1146
   3073 N           8.6909   17.7217    7.6031 N.3   769  UNL769     -0.3437
   3074 H           8.2492   18.0123    8.4742 H     769  UNL769      0.1146
   3075 H           9.4165   18.4114    7.4124 H     769  UNL769      0.1146
   3076 H           9.1784   16.8517    7.8120 H     769  UNL769      0.1146
   3077 N           8.6909   17.5876   10.2693 N.3   770  UNL770     -0.3437
   3078 H           8.2492   18.1116    9.5151 H     770  UNL770      0.1146
   3079 H           9.4165   17.0222    9.8309 H     770  UNL770      0.1146
   3080 H           9.1784   18.2757   10.8413 H     770  UNL770      0.1146
   3081 N           8.6909   17.7217   12.1806 N.3   771  UNL771     -0.3437
   3082 H           8.2492   18.0123   13.0517 H     771  UNL771      0.1146
   3083 H           9.4165   18.4114   11.9899 H     771  UNL771      0.1146
   3084 H           9.1784   16.8517   12.3895 H     771  UNL771      0.1146
   3085 N           8.6909   17.7217   14.4693 N.3   772  UNL772     -0.3437
   3086 H           8.2492   18.0123   15.3404 H     772  UNL772      0.1146
   3087 H           9.4165   18.4114   14.2786 H     772  UNL772      0.1146
   3088 H           9.1784   16.8517   14.6782 H     772  UNL772      0.1146
   3089 N           8.6909   17.7217   16.7580 N.3   773  UNL773     -0.3437
   3090 H           8.2492   18.0123   17.6291 H     773  UNL773      0.1146
   3091 H           9.4165   18.4114   16.5673 H     773  UNL773      0.1146
   3092 H           9.1784   16.8517   16.9669 H     773  UNL773      0.1146
   3093 N           8.6909   17.5876   19.4241 N.3   774  UNL774     -0.3437
   3094 H           8.2492   18.1116   18.6700 H     774  UNL774      0.1146
   3095 H           9.4165   17.0222   18.9858 H     774  UNL774      0.1146
   3096 H           9.1784   18.2757   19.9962 H     774  UNL774      0.1146
   3097 N           8.6909   17.7217   21.3354 N.3   775  UNL775     -0.3437
   3098 H           8.2492   18.0123   22.2065 H     775  UNL775      0.1146
   3099 H           9.4165   18.4114   21.1447 H     775  UNL775      0.1146
   3100 H           9.1784   16.8517   21.5443 H     775  UNL775      0.1146
   3101 N           8.6909   17.7217   23.6241 N.3   776  UNL776     -0.3437
   3102 H           8.2492   18.0123   24.4952 H     776  UNL776      0.1146
   3103 H           9.4165   18.4114   23.4334 H     776  UNL776      0.1146
   3104 H           9.1784   16.8517   23.8330 H     776  UNL776      0.1146
   3105 N           8.6909   17.7217   25.9128 N.3   777  UNL777     -0.3437
   3106 H           8.2492   18.0123   26.7840 H     777  UNL777      0.1146
   3107 H           9.4165   18.4114   25.7221 H     777  UNL777      0.1146
   3108 H           9.1784   16.8517   26.1217 H     777  UNL777      0.1146
   3109 N           8.6071   17.7388   29.3203 N.3   778  UNL778     -0.3437
   3110 H           8.7448   17.1452   30.1370 H     778  UNL778      0.1146
   3111 H           8.8862   18.6767   29.6044 H     778  UNL778      0.1146
   3112 H           9.2969   17.4364   28.6338 H     778  UNL778      0.1146
   3113 N           8.6909   20.3877    1.0703 N.3   779  UNL779     -0.3437
   3114 H           8.2492   19.5159    0.7818 H     779  UNL779      0.1146
   3115 H           9.4165   20.1278    1.7369 H     779  UNL779      0.1146
   3116 H           9.1784   20.7410    0.2482 H     779  UNL779      0.1146
   3117 N           8.6909   20.3877    3.3590 N.3   780  UNL780     -0.3437
   3118 H           8.2492   19.5159    3.0705 H     780  UNL780      0.1146
   3119 H           9.4165   20.1278    4.0256 H     780  UNL780      0.1146
   3120 H           9.1784   20.7410    2.5369 H     780  UNL780      0.1146
   3121 N           8.6909   20.3877    5.6477 N.3   781  UNL781     -0.3437
   3122 H           8.2492   19.5159    5.3592 H     781  UNL781      0.1146
   3123 H           9.4165   20.1278    6.3143 H     781  UNL781      0.1146
   3124 H           9.1784   20.7410    4.8256 H     781  UNL781      0.1146
   3125 N           8.6909   20.3877    7.9365 N.3   782  UNL782     -0.3437
   3126 H           8.2492   19.5159    7.6479 H     782  UNL782      0.1146
   3127 H           9.4165   20.1278    8.6031 H     782  UNL782      0.1146
   3128 H           9.1784   20.7410    7.1144 H     782  UNL782      0.1146
   3129 N           8.6909   20.1656    9.8918 N.3   783  UNL783     -0.3437
   3130 H           8.2492   20.4562   10.7629 H     783  UNL783      0.1146
   3131 H           9.4165   20.8552    9.7011 H     783  UNL783      0.1146
   3132 H           9.1784   19.2955   10.1007 H     783  UNL783      0.1146
   3133 N           8.6909   20.0314   12.5580 N.3   784  UNL784     -0.3437
   3134 H           8.2492   20.5554   11.8039 H     784  UNL784      0.1146
   3135 H           9.4165   19.4660   12.1196 H     784  UNL784      0.1146
   3136 H           9.1784   20.7195   13.1301 H     784  UNL784      0.1146
   3137 N           8.8210   20.1656   14.9792 N.3   785  UNL785     -0.3437
   3138 H           9.7833   20.4562   14.8117 H     785  UNL785      0.1146
   3139 H           8.2340   20.8552   14.5120 H     785  UNL785      0.1146
   3140 H           8.6967   19.2955   14.4636 H     785  UNL785      0.1146
   3141 N           8.6909   20.3877   17.0913 N.3   786  UNL786     -0.3437
   3142 H           8.2492   19.5159   16.8028 H     786  UNL786      0.1146
   3143 H           9.4165   20.1278   17.7579 H     786  UNL786      0.1146
   3144 H           9.1784   20.7410   16.2692 H     786  UNL786      0.1146
   3145 N           8.6909   20.3877   19.3800 N.3   787  UNL787     -0.3437
   3146 H           8.2492   19.5159   19.0915 H     787  UNL787      0.1146
   3147 H           9.4165   20.1278   20.0466 H     787  UNL787      0.1146
   3148 H           9.1784   20.7410   18.5579 H     787  UNL787      0.1146
   3149 N           8.6544   20.0727   21.4152 N.3   788  UNL788     -0.3437
   3150 H           8.7822   19.6895   22.3508 H     788  UNL788      0.1146
   3151 H           8.5593   21.0802   21.5350 H     788  UNL788      0.1146
   3152 H           9.5390   19.9299   20.9300 H     788  UNL788      0.1146
   3153 N           8.6544   20.0727   23.7040 N.3   789  UNL789     -0.3437
   3154 H           8.7822   19.6895   24.6395 H     789  UNL789      0.1146
   3155 H           8.5593   21.0802   23.8237 H     789  UNL789      0.1146
   3156 H           9.5390   19.9299   23.2187 H     789  UNL789      0.1146
   3157 N           8.6909   20.0314   26.2903 N.3   790  UNL790     -0.3437
   3158 H           8.2492   20.5554   25.5361 H     790  UNL790      0.1146
   3159 H           9.4165   19.4660   25.8519 H     790  UNL790      0.1146
   3160 H           9.1784   20.7195   26.8623 H     790  UNL790      0.1146
   3161 N           8.6071   20.1826   29.3203 N.3   791  UNL791     -0.3437
   3162 H           8.7448   19.5890   30.1370 H     791  UNL791      0.1146
   3163 H           8.8862   21.1205   29.6044 H     791  UNL791      0.1146
   3164 H           9.2969   19.8802   28.6338 H     791  UNL791      0.1146
   3165 N           8.6909   22.8315    1.0703 N.3   792  UNL792     -0.3437
   3166 H           8.2492   21.9597    0.7818 H     792  UNL792      0.1146
   3167 H           9.4165   22.5716    1.7369 H     792  UNL792      0.1146
   3168 H           9.1784   23.1848    0.2482 H     792  UNL792      0.1146
   3169 N           8.6909   22.8315    3.3590 N.3   793  UNL793     -0.3437
   3170 H           8.2492   21.9597    3.0705 H     793  UNL793      0.1146
   3171 H           9.4165   22.5716    4.0256 H     793  UNL793      0.1146
   3172 H           9.1784   23.1848    2.5369 H     793  UNL793      0.1146
   3173 N           8.6909   22.8315    5.6477 N.3   794  UNL794     -0.3437
   3174 H           8.2492   21.9597    5.3592 H     794  UNL794      0.1146
   3175 H           9.4165   22.5716    6.3143 H     794  UNL794      0.1146
   3176 H           9.1784   23.1848    4.8256 H     794  UNL794      0.1146
   3177 N           8.6909   22.8315    7.9365 N.3   795  UNL795     -0.3437
   3178 H           8.2492   21.9597    7.6479 H     795  UNL795      0.1146
   3179 H           9.4165   22.5716    8.6031 H     795  UNL795      0.1146
   3180 H           9.1784   23.1848    7.1144 H     795  UNL795      0.1146
   3181 N           8.9165   22.7103    9.8297 N.3   796  UNL796     -0.3437
   3182 H           8.0066   22.2963   10.0278 H     796  UNL796      0.1146
   3183 H           9.0036   23.5098   10.4555 H     796  UNL796      0.1146
   3184 H           9.6083   22.0312   10.1437 H     796  UNL796      0.1146
   3185 N           8.6909   22.6094   12.1806 N.3   797  UNL797     -0.3437
   3186 H           8.2492   22.9000   13.0517 H     797  UNL797      0.1146
   3187 H           9.4165   23.2990   11.9899 H     797  UNL797      0.1146
   3188 H           9.1784   21.7393   12.3895 H     797  UNL797      0.1146
   3189 N           8.8975   22.8248   14.4638 N.3   798  UNL798     -0.3437
   3190 H           8.2760   23.1476   15.2040 H     798  UNL798      0.1146
   3191 H           9.8036   22.6724   14.9044 H     798  UNL798      0.1146
   3192 H           8.5578   21.9027   14.1941 H     798  UNL798      0.1146
   3193 N           8.6544   22.5165   16.8378 N.3   799  UNL799     -0.3437
   3194 H           8.7822   22.1333   17.7733 H     799  UNL799      0.1146
   3195 H           8.5593   23.5240   16.9575 H     799  UNL799      0.1146
   3196 H           9.5390   22.3737   16.3526 H     799  UNL799      0.1146
   3197 N           8.6909   22.8315   19.3800 N.3   800  UNL800     -0.3437
   3198 H           8.2492   21.9597   19.0915 H     800  UNL800      0.1146
   3199 H           9.4165   22.5716   20.0466 H     800  UNL800      0.1146
   3200 H           9.1784   23.1848   18.5579 H     800  UNL800      0.1146
   3201 N           8.6909   22.6094   21.3354 N.3   801  UNL801     -0.3437
   3202 H           8.2492   22.9000   22.2065 H     801  UNL801      0.1146
   3203 H           9.4165   23.2990   21.1447 H     801  UNL801      0.1146
   3204 H           9.1784   21.7393   21.5443 H     801  UNL801      0.1146
   3205 N           8.6909   22.4752   24.0016 N.3   802  UNL802     -0.3437
   3206 H           8.2492   22.9992   23.2474 H     802  UNL802      0.1146
   3207 H           9.4165   21.9098   23.5632 H     802  UNL802      0.1146
   3208 H           9.1784   23.1633   24.5736 H     802  UNL802      0.1146
   3209 N           8.6909   22.8315   26.2462 N.3   803  UNL803     -0.3437
   3210 H           8.2492   21.9597   25.9577 H     803  UNL803      0.1146
   3211 H           9.4165   22.5716   26.9128 H     803  UNL803      0.1146
   3212 H           9.1784   23.1848   25.4241 H     803  UNL803      0.1146
   3213 N           8.6071   22.6264   29.3203 N.3   804  UNL804     -0.3437
   3214 H           8.7448   22.0328   30.1370 H     804  UNL804      0.1146
   3215 H           8.8862   23.5643   29.6044 H     804  UNL804      0.1146
   3216 H           9.2969   22.3240   28.6338 H     804  UNL804      0.1146
   3217 N           8.6909   25.2753    1.0703 N.3   805  UNL805     -0.3437
   3218 H           8.2492   24.4035    0.7818 H     805  UNL805      0.1146
   3219 H           9.4165   25.0154    1.7369 H     805  UNL805      0.1146
   3220 H           9.1784   25.6286    0.2482 H     805  UNL805      0.1146
   3221 N           8.6909   25.2753    3.3590 N.3   806  UNL806     -0.3437
   3222 H           8.2492   24.4035    3.0705 H     806  UNL806      0.1146
   3223 H           9.4165   25.0154    4.0256 H     806  UNL806      0.1146
   3224 H           9.1784   25.6286    2.5369 H     806  UNL806      0.1146
   3225 N           8.6909   25.2753    5.6477 N.3   807  UNL807     -0.3437
   3226 H           8.2492   24.4035    5.3592 H     807  UNL807      0.1146
   3227 H           9.4165   25.0154    6.3143 H     807  UNL807      0.1146
   3228 H           9.1784   25.6286    4.8256 H     807  UNL807      0.1146
   3229 N           8.6909   25.2753    7.9365 N.3   808  UNL808     -0.3437
   3230 H           8.2492   24.4035    7.6479 H     808  UNL808      0.1146
   3231 H           9.4165   25.0154    8.6031 H     808  UNL808      0.1146
   3232 H           9.1784   25.6286    7.1144 H     808  UNL808      0.1146
   3233 N           8.6544   24.9603    9.9717 N.3   809  UNL809     -0.3437
   3234 H           8.7822   24.5771   10.9072 H     809  UNL809      0.1146
   3235 H           8.5593   25.9678   10.0914 H     809  UNL809      0.1146
   3236 H           9.5390   24.8175    9.4864 H     809  UNL809      0.1146
   3237 N           8.8975   25.2686   12.1751 N.3   810  UNL810     -0.3437
   3238 H           8.2760   25.5914   12.9153 H     810  UNL810      0.1146
   3239 H           9.8036   25.1162   12.6157 H     810  UNL810      0.1146
   3240 H           8.5578   24.3465   11.9054 H     810  UNL810      0.1146
   3241 N           8.6909   25.0532   14.4693 N.3   811  UNL811     -0.3437
   3242 H           8.2492   25.3438   15.3404 H     811  UNL811      0.1146
   3243 H           9.4165   25.7428   14.2786 H     811  UNL811      0.1146
   3244 H           9.1784   24.1831   14.6782 H     811  UNL811      0.1146
   3245 N           8.6909   24.9191   17.1354 N.3   812  UNL812     -0.3437
   3246 H           8.2492   25.4430   16.3813 H     812  UNL812      0.1146
   3247 H           9.4165   24.3536   16.6971 H     812  UNL812      0.1146
   3248 H           9.1784   25.6071   17.7075 H     812  UNL812      0.1146
   3249 N           8.6909   25.2753   19.3800 N.3   813  UNL813     -0.3437
   3250 H           8.2492   24.4035   19.0915 H     813  UNL813      0.1146
   3251 H           9.4165   25.0154   20.0466 H     813  UNL813      0.1146
   3252 H           9.1784   25.6286   18.5579 H     813  UNL813      0.1146
   3253 N           8.6909   25.2753   21.6687 N.3   814  UNL814     -0.3437
   3254 H           8.2492   24.4035   21.3802 H     814  UNL814      0.1146
   3255 H           9.4165   25.0154   22.3353 H     814  UNL814      0.1146
   3256 H           9.1784   25.6286   20.8466 H     814  UNL814      0.1146
   3257 N           8.6909   25.2753   23.9575 N.3   815  UNL815     -0.3437
   3258 H           8.2492   24.4035   23.6690 H     815  UNL815      0.1146
   3259 H           9.4165   25.0154   24.6241 H     815  UNL815      0.1146
   3260 H           9.1784   25.6286   23.1354 H     815  UNL815      0.1146
   3261 N           8.6909   25.2753   26.2462 N.3   816  UNL816     -0.3437
   3262 H           8.2492   24.4035   25.9577 H     816  UNL816      0.1146
   3263 H           9.4165   25.0154   26.9128 H     816  UNL816      0.1146
   3264 H           9.1784   25.6286   25.4241 H     816  UNL816      0.1146
   3265 N           8.6071   25.0702   29.3203 N.3   817  UNL817     -0.3437
   3266 H           8.7448   24.4766   30.1370 H     817  UNL817      0.1146
   3267 H           8.8862   26.0081   29.6044 H     817  UNL817      0.1146
   3268 H           9.2969   24.7678   28.6338 H     817  UNL817      0.1146
   3269 N           8.6909   27.4970    0.7370 N.3   818  UNL818     -0.3437
   3270 H           8.2492   27.7876    1.6081 H     818  UNL818      0.1146
   3271 H           9.4165   28.1866    0.5463 H     818  UNL818      0.1146
   3272 H           9.1784   26.6269    0.9459 H     818  UNL818      0.1146
   3273 N           8.6909   27.4970    3.0257 N.3   819  UNL819     -0.3437
   3274 H           8.2492   27.7876    3.8968 H     819  UNL819      0.1146
   3275 H           9.4165   28.1866    2.8350 H     819  UNL819      0.1146
   3276 H           9.1784   26.6269    3.2346 H     819  UNL819      0.1146
   3277 N           8.6909   27.4970    5.3144 N.3   820  UNL820     -0.3437
   3278 H           8.2492   27.7876    6.1855 H     820  UNL820      0.1146
   3279 H           9.4165   28.1866    5.1237 H     820  UNL820      0.1146
   3280 H           9.1784   26.6269    5.5233 H     820  UNL820      0.1146
   3281 N           8.6544   27.4041    7.6830 N.3   821  UNL821     -0.3437
   3282 H           8.7822   27.0209    8.6185 H     821  UNL821      0.1146
   3283 H           8.5593   28.4116    7.8027 H     821  UNL821      0.1146
   3284 H           9.5390   27.2613    7.1977 H     821  UNL821      0.1146
   3285 N           8.8210   27.4970   10.4017 N.3   822  UNL822     -0.3437
   3286 H           9.7833   27.7876   10.2343 H     822  UNL822      0.1146
   3287 H           8.2340   28.1866    9.9345 H     822  UNL822      0.1146
   3288 H           8.6967   26.6269    9.8861 H     822  UNL822      0.1146
   3289 N           8.6909   27.4970   12.1806 N.3   823  UNL823     -0.3437
   3290 H           8.2492   27.7876   13.0517 H     823  UNL823      0.1146
   3291 H           9.4165   28.1866   11.9899 H     823  UNL823      0.1146
   3292 H           9.1784   26.6269   12.3895 H     823  UNL823      0.1146
   3293 N           8.6909   27.3629   14.8467 N.3   824  UNL824     -0.3437
   3294 H           8.2492   27.8868   14.0926 H     824  UNL824      0.1146
   3295 H           9.4165   26.7974   14.4084 H     824  UNL824      0.1146
   3296 H           9.1784   28.0509   15.4188 H     824  UNL824      0.1146
   3297 N           8.6909   27.7191   17.0913 N.3   825  UNL825     -0.3437
   3298 H           8.2492   26.8473   16.8028 H     825  UNL825      0.1146
   3299 H           9.4165   27.4592   17.7579 H     825  UNL825      0.1146
   3300 H           9.1784   28.0724   16.2692 H     825  UNL825      0.1146
   3301 N           8.6909   27.4970   19.0467 N.3   826  UNL826     -0.3437
   3302 H           8.2492   27.7876   19.9178 H     826  UNL826      0.1146
   3303 H           9.4165   28.1866   18.8560 H     826  UNL826      0.1146
   3304 H           9.1784   26.6269   19.2556 H     826  UNL826      0.1146
   3305 N           8.6909   27.4970   21.3354 N.3   827  UNL827     -0.3437
   3306 H           8.2492   27.7876   22.2065 H     827  UNL827      0.1146
   3307 H           9.4165   28.1866   21.1447 H     827  UNL827      0.1146
   3308 H           9.1784   26.6269   21.5443 H     827  UNL827      0.1146
   3309 N           8.6909   27.4970   23.6241 N.3   828  UNL828     -0.3437
   3310 H           8.2492   27.7876   24.4952 H     828  UNL828      0.1146
   3311 H           9.4165   28.1866   23.4334 H     828  UNL828      0.1146
   3312 H           9.1784   26.6269   23.8330 H     828  UNL828      0.1146
   3313 N           8.6909   27.4970   25.9128 N.3   829  UNL829     -0.3437
   3314 H           8.2492   27.7876   26.7840 H     829  UNL829      0.1146
   3315 H           9.4165   28.1866   25.7221 H     829  UNL829      0.1146
   3316 H           9.1784   26.6269   26.1217 H     829  UNL829      0.1146
   3317 N           8.6071   27.5140   29.3203 N.3   830  UNL830     -0.3437
   3318 H           8.7448   26.9204   30.1370 H     830  UNL830      0.1146
   3319 H           8.8862   28.4519   29.6044 H     830  UNL830      0.1146
   3320 H           9.2969   27.2116   28.6338 H     830  UNL830      0.1146
   3321 N           8.6909   30.9408    0.7370 N.3   831  UNL831     -0.3437
   3322 H           8.2492   31.2314    1.6081 H     831  UNL831      0.1146
   3323 H           9.4165   31.6304    0.5463 H     831  UNL831      0.1146
   3324 H           9.1784   30.0707    0.9459 H     831  UNL831      0.1146
   3325 N           8.6909   30.9408    3.0257 N.3   832  UNL832     -0.3437
   3326 H           8.2492   31.2314    3.8968 H     832  UNL832      0.1146
   3327 H           9.4165   31.6304    2.8350 H     832  UNL832      0.1146
   3328 H           9.1784   30.0707    3.2346 H     832  UNL832      0.1146
   3329 N           8.6909   30.9408    5.3144 N.3   833  UNL833     -0.3437
   3330 H           8.2492   31.2314    6.1855 H     833  UNL833      0.1146
   3331 H           9.4165   31.6304    5.1237 H     833  UNL833      0.1146
   3332 H           9.1784   30.0707    5.5233 H     833  UNL833      0.1146
   3333 N           8.8686   31.1952    7.6366 N.3   834  UNL834     -0.3437
   3334 H           8.0626   31.1453    8.2580 H     834  UNL834      0.1146
   3335 H           9.6874   31.2400    8.2416 H     834  UNL834      0.1146
   3336 H           8.9165   30.2928    7.1657 H     834  UNL834      0.1146
   3337 N           8.6909   30.9408    9.8918 N.3   835  UNL835     -0.3437
   3338 H           8.2492   31.2314   10.7629 H     835  UNL835      0.1146
   3339 H           9.4165   31.6304    9.7011 H     835  UNL835      0.1146
   3340 H           9.1784   30.0707   10.1007 H     835  UNL835      0.1146
   3341 N           8.6909   30.9408   12.1806 N.3   836  UNL836     -0.3437
   3342 H           8.2492   31.2314   13.0517 H     836  UNL836      0.1146
   3343 H           9.4165   31.6304   11.9899 H     836  UNL836      0.1146
   3344 H           9.1784   30.0707   12.3895 H     836  UNL836      0.1146
   3345 N           8.6909   29.9408   14.4693 N.3   837  UNL837     -0.3437
   3346 H           8.2492   30.2314   15.3404 H     837  UNL837      0.1146
   3347 H           9.4165   30.6304   14.2786 H     837  UNL837      0.1146
   3348 H           9.1784   29.0707   14.6782 H     837  UNL837      0.1146
   3349 N           8.6909   30.9408   16.7580 N.3   838  UNL838     -0.3437
   3350 H           8.2492   31.2314   17.6291 H     838  UNL838      0.1146
   3351 H           9.4165   31.6304   16.5673 H     838  UNL838      0.1146
   3352 H           9.1784   30.0707   16.9669 H     838  UNL838      0.1146
   3353 N           8.6909   30.9408   19.0467 N.3   839  UNL839     -0.3437
   3354 H           8.2492   31.2314   19.9178 H     839  UNL839      0.1146
   3355 H           9.4165   31.6304   18.8560 H     839  UNL839      0.1146
   3356 H           9.1784   30.0707   19.2556 H     839  UNL839      0.1146
   3357 N           8.6909   30.9408   21.3354 N.3   840  UNL840     -0.3437
   3358 H           8.2492   31.2314   22.2065 H     840  UNL840      0.1146
   3359 H           9.4165   31.6304   21.1447 H     840  UNL840      0.1146
   3360 H           9.1784   30.0707   21.5443 H     840  UNL840      0.1146
   3361 N           8.8210   29.9408   24.1340 N.3   841  UNL841     -0.3437
   3362 H           9.7833   30.2314   23.9666 H     841  UNL841      0.1146
   3363 H           8.2340   30.6304   23.6668 H     841  UNL841      0.1146
   3364 H           8.6967   29.0707   23.6184 H     841  UNL841      0.1146
   3365 N           8.6909   30.9408   25.9128 N.3   842  UNL842     -0.3437
   3366 H           8.2492   31.2314   26.7840 H     842  UNL842      0.1146
   3367 H           9.4165   31.6304   25.7221 H     842  UNL842      0.1146
   3368 H           9.1784   30.0707   26.1217 H     842  UNL842      0.1146
   3369 N           8.6909   29.9408   28.2016 N.3   843  UNL843     -0.3437
   3370 H           8.2492   30.2314   29.0727 H     843  UNL843      0.1146
   3371 H           9.4165   30.6304   28.0109 H     843  UNL843      0.1146
   3372 H           9.1784   29.0707   28.4105 H     843  UNL843      0.1146
   3373 N          11.0916    0.8305    0.7315 N.3   844  UNL844     -0.3437
   3374 H          10.4702    1.1534    1.4717 H     844  UNL844      0.1146
   3375 H          11.9978    0.6782    1.1721 H     844  UNL844      0.1146
   3376 H          10.7520   -0.0916    0.4619 H     844  UNL844      0.1146
   3377 N          11.0916    0.8305    3.0203 N.3   845  UNL845     -0.3437
   3378 H          10.4702    1.1534    3.7605 H     845  UNL845      0.1146
   3379 H          11.9978    0.6782    3.4608 H     845  UNL845      0.1146
   3380 H          10.7520   -0.0916    2.7506 H     845  UNL845      0.1146
   3381 N          10.8850    0.6151    5.3144 N.3   846  UNL846     -0.3437
   3382 H          10.4433    0.9057    6.1855 H     846  UNL846      0.1146
   3383 H          11.6106    1.3047    5.1237 H     846  UNL846      0.1146
   3384 H          11.3725   -0.2550    5.5233 H     846  UNL846      0.1146
   3385 N          11.0916    0.8305    7.5977 N.3   847  UNL847     -0.3437
   3386 H          10.4702    1.1534    8.3379 H     847  UNL847      0.1146
   3387 H          11.9978    0.6782    8.0382 H     847  UNL847      0.1146
   3388 H          10.7520   -0.0916    7.3280 H     847  UNL847      0.1146
   3389 N          11.0916    0.8305    9.8864 N.3   848  UNL848     -0.3437
   3390 H          10.4702    1.1534   10.6266 H     848  UNL848      0.1146
   3391 H          11.9978    0.6782   10.3270 H     848  UNL848      0.1146
   3392 H          10.7520   -0.0916    9.6167 H     848  UNL848      0.1146
   3393 N          10.8850    0.6151   12.1806 N.3   849  UNL849     -0.3437
   3394 H          10.4433    0.9057   13.0517 H     849  UNL849      0.1146
   3395 H          11.6106    1.3047   11.9899 H     849  UNL849      0.1146
   3396 H          11.3725   -0.2550   12.3895 H     849  UNL849      0.1146
   3397 N          10.8850    0.4810   14.8467 N.3   850  UNL850     -0.3437
   3398 H          10.4433    1.0050   14.0926 H     850  UNL850      0.1146
   3399 H          11.6106   -0.0845   14.4084 H     850  UNL850      0.1146
   3400 H          11.3725    1.1691   15.4188 H     850  UNL850      0.1146
   3401 N          11.0152    0.6151   17.2679 N.3   851  UNL851     -0.3437
   3402 H          11.9774    0.9057   17.1004 H     851  UNL851      0.1146
   3403 H          10.4282    1.3047   16.8007 H     851  UNL851      0.1146
   3404 H          10.8908   -0.2550   16.7523 H     851  UNL851      0.1146
   3405 N          10.8850    0.6151   19.0467 N.3   852  UNL852     -0.3437
   3406 H          10.4433    0.9057   19.9178 H     852  UNL852      0.1146
   3407 H          11.6106    1.3047   18.8560 H     852  UNL852      0.1146
   3408 H          11.3725   -0.2550   19.2556 H     852  UNL852      0.1146
   3409 N          10.8850    0.6151   21.3354 N.3   853  UNL853     -0.3437
   3410 H          10.4433    0.9057   22.2065 H     853  UNL853      0.1146
   3411 H          11.6106    1.3047   21.1447 H     853  UNL853      0.1146
   3412 H          11.3725   -0.2550   21.5443 H     853  UNL853      0.1146
   3413 N          10.8850    0.4810   24.0016 N.3   854  UNL854     -0.3437
   3414 H          10.4433    1.0050   23.2474 H     854  UNL854      0.1146
   3415 H          11.6106   -0.0845   23.5632 H     854  UNL854      0.1146
   3416 H          11.3725    1.1691   24.5736 H     854  UNL854      0.1146
   3417 N          10.8850    0.8372   26.2462 N.3   855  UNL855     -0.3437
   3418 H          10.4433   -0.0346   25.9577 H     855  UNL855      0.1146
   3419 H          11.6106    0.5773   26.9128 H     855  UNL855      0.1146
   3420 H          11.3725    1.1906   25.4241 H     855  UNL855      0.1146
   3421 N          10.8012    0.6321   29.3203 N.3   856  UNL856     -0.3437
   3422 H          10.9389    0.0386   30.1370 H     856  UNL856      0.1146
   3423 H          11.0804    1.5701   29.6044 H     856  UNL856      0.1146
   3424 H          11.4910    0.3298   28.6338 H     856  UNL856      0.1146
   3425 N          10.8850    3.2810    1.0703 N.3   857  UNL857     -0.3437
   3426 H          10.4433    2.4092    0.7818 H     857  UNL857      0.1146
   3427 H          11.6106    3.0211    1.7369 H     857  UNL857      0.1146
   3428 H          11.3725    3.6344    0.2482 H     857  UNL857      0.1146
   3429 N          10.8850    3.2810    3.3590 N.3   858  UNL858     -0.3437
   3430 H          10.4433    2.4092    3.0705 H     858  UNL858      0.1146
   3431 H          11.6106    3.0211    4.0256 H     858  UNL858      0.1146
   3432 H          11.3725    3.6344    2.5369 H     858  UNL858      0.1146
   3433 N          10.8486    2.9661    5.3942 N.3   859  UNL859     -0.3437
   3434 H          10.9763    2.5829    6.3298 H     859  UNL859      0.1146
   3435 H          10.7535    3.9736    5.5140 H     859  UNL859      0.1146
   3436 H          11.7332    2.8232    4.9090 H     859  UNL859      0.1146
   3437 N          10.8850    3.2810    7.9365 N.3   860  UNL860     -0.3437
   3438 H          10.4433    2.4092    7.6479 H     860  UNL860      0.1146
   3439 H          11.6106    3.0211    8.6031 H     860  UNL860      0.1146
   3440 H          11.3725    3.6344    7.1144 H     860  UNL860      0.1146
   3441 N          10.8850    3.2810   10.2252 N.3   861  UNL861     -0.3437
   3442 H          10.4433    2.4092    9.9367 H     861  UNL861      0.1146
   3443 H          11.6106    3.0211   10.8918 H     861  UNL861      0.1146
   3444 H          11.3725    3.6344    9.4031 H     861  UNL861      0.1146
   3445 N          10.8850    3.0589   12.1806 N.3   862  UNL862     -0.3437
   3446 H          10.4433    3.3495   13.0517 H     862  UNL862      0.1146
   3447 H          11.6106    3.7485   11.9899 H     862  UNL862      0.1146
   3448 H          11.3725    2.1888   12.3895 H     862  UNL862      0.1146
   3449 N          10.8850    2.9248   14.8467 N.3   863  UNL863     -0.3437
   3450 H          10.4433    3.4488   14.0926 H     863  UNL863      0.1146
   3451 H          11.6106    2.3593   14.4084 H     863  UNL863      0.1146
   3452 H          11.3725    3.6129   15.4188 H     863  UNL863      0.1146
   3453 N          10.8850    3.2810   17.0913 N.3   864  UNL864     -0.3437
   3454 H          10.4433    2.4092   16.8028 H     864  UNL864      0.1146
   3455 H          11.6106    3.0211   17.7579 H     864  UNL864      0.1146
   3456 H          11.3725    3.6344   16.2692 H     864  UNL864      0.1146
   3457 N          11.1106    3.1598   18.9846 N.3   865  UNL865     -0.3437
   3458 H          10.2008    2.7459   19.1826 H     865  UNL865      0.1146
   3459 H          11.1977    3.9593   19.6104 H     865  UNL865      0.1146
   3460 H          11.8025    2.4808   19.2986 H     865  UNL865      0.1146
   3461 N          10.8850    2.9248   21.7128 N.3   866  UNL866     -0.3437
   3462 H          10.4433    3.4488   20.9587 H     866  UNL866      0.1146
   3463 H          11.6106    2.3593   21.2745 H     866  UNL866      0.1146
   3464 H          11.3725    3.6129   22.2849 H     866  UNL866      0.1146
   3465 N          11.0152    3.0589   24.1340 N.3   867  UNL867     -0.3437
   3466 H          11.9774    3.3495   23.9666 H     867  UNL867      0.1146
   3467 H          10.4282    3.7485   23.6668 H     867  UNL867      0.1146
   3468 H          10.8908    2.1888   23.6184 H     867  UNL867      0.1146
   3469 N          11.0916    3.2743   25.9074 N.3   868  UNL868     -0.3437
   3470 H          10.4702    3.5972   26.6476 H     868  UNL868      0.1146
   3471 H          11.9978    3.1220   26.3480 H     868  UNL868      0.1146
   3472 H          10.7520    2.3523   25.6377 H     868  UNL868      0.1146
   3473 N          10.8012    3.0759   29.3203 N.3   869  UNL869     -0.3437
   3474 H          10.9389    2.4824   30.1370 H     869  UNL869      0.1146
   3475 H          11.0804    4.0139   29.6044 H     869  UNL869      0.1146
   3476 H          11.4910    2.7736   28.6338 H     869  UNL869      0.1146
   3477 N          10.8850    5.5027    0.7370 N.3   870  UNL870     -0.3437
   3478 H          10.4433    5.7933    1.6081 H     870  UNL870      0.1146
   3479 H          11.6106    6.1923    0.5463 H     870  UNL870      0.1146
   3480 H          11.3725    4.6326    0.9459 H     870  UNL870      0.1146
   3481 N          11.0916    5.7181    3.0203 N.3   871  UNL871     -0.3437
   3482 H          10.4702    6.0410    3.7605 H     871  UNL871      0.1146
   3483 H          11.9978    5.5658    3.4608 H     871  UNL871      0.1146
   3484 H          10.7520    4.7961    2.7506 H     871  UNL871      0.1146
   3485 N          10.8850    5.5027    5.3144 N.3   872  UNL872     -0.3437
   3486 H          10.4433    5.7933    6.1855 H     872  UNL872      0.1146
   3487 H          11.6106    6.1923    5.1237 H     872  UNL872      0.1146
   3488 H          11.3725    4.6326    5.5233 H     872  UNL872      0.1146
   3489 N          10.8850    5.5027    7.6031 N.3   873  UNL873     -0.3437
   3490 H          10.4433    5.7933    8.4742 H     873  UNL873      0.1146
   3491 H          11.6106    6.1923    7.4124 H     873  UNL873      0.1146
   3492 H          11.3725    4.6326    7.8120 H     873  UNL873      0.1146
   3493 N          10.8850    5.5027    9.8918 N.3   874  UNL874     -0.3437
   3494 H          10.4433    5.7933   10.7629 H     874  UNL874      0.1146
   3495 H          11.6106    6.1923    9.7011 H     874  UNL874      0.1146
   3496 H          11.3725    4.6326   10.1007 H     874  UNL874      0.1146
   3497 N          11.1222    5.3116   12.2090 N.3   875  UNL875     -0.3437
   3498 H          10.1778    5.3136   12.5915 H     875  UNL875      0.1146
   3499 H          11.2619    6.2348   11.8007 H     875  UNL875      0.1146
   3500 H          11.7497    5.2611   13.0103 H     875  UNL875      0.1146
   3501 N          11.0152    5.5027   14.9792 N.3   876  UNL876     -0.3437
   3502 H          11.9774    5.7933   14.8117 H     876  UNL876      0.1146
   3503 H          10.4282    6.1923   14.5120 H     876  UNL876      0.1146
   3504 H          10.8908    4.6326   14.4636 H     876  UNL876      0.1146
   3505 N          10.8850    5.5027   16.7580 N.3   877  UNL877     -0.3437
   3506 H          10.4433    5.7933   17.6291 H     877  UNL877      0.1146
   3507 H          11.6106    6.1923   16.5673 H     877  UNL877      0.1146
   3508 H          11.3725    4.6326   16.9669 H     877  UNL877      0.1146
   3509 N          11.0916    5.7181   19.0413 N.3   878  UNL878     -0.3437
   3510 H          10.4702    6.0410   19.7815 H     878  UNL878      0.1146
   3511 H          11.9978    5.5658   19.4818 H     878  UNL878      0.1146
   3512 H          10.7520    4.7961   18.7716 H     878  UNL878      0.1146
   3513 N          10.8850    5.5027   21.3354 N.3   879  UNL879     -0.3437
   3514 H          10.4433    5.7933   22.2065 H     879  UNL879      0.1146
   3515 H          11.6106    6.1923   21.1447 H     879  UNL879      0.1146
   3516 H          11.3725    4.6326   21.5443 H     879  UNL879      0.1146
   3517 N          10.8850    5.5027   23.6241 N.3   880  UNL880     -0.3437
   3518 H          10.4433    5.7933   24.4952 H     880  UNL880      0.1146
   3519 H          11.6106    6.1923   23.4334 H     880  UNL880      0.1146
   3520 H          11.3725    4.6326   23.8330 H     880  UNL880      0.1146
   3521 N          10.8850    5.5027   25.9128 N.3   881  UNL881     -0.3437
   3522 H          10.4433    5.7933   26.7840 H     881  UNL881      0.1146
   3523 H          11.6106    6.1923   25.7221 H     881  UNL881      0.1146
   3524 H          11.3725    4.6326   26.1217 H     881  UNL881      0.1146
   3525 N          10.8012    5.5197   29.3203 N.3   882  UNL882     -0.3437
   3526 H          10.9389    4.9262   30.1370 H     882  UNL882      0.1146
   3527 H          11.0804    6.4577   29.6044 H     882  UNL882      0.1146
   3528 H          11.4910    5.2174   28.6338 H     882  UNL882      0.1146
   3529 N          10.8850    8.1686    1.0703 N.3   883  UNL883     -0.3437
   3530 H          10.4433    7.2968    0.7818 H     883  UNL883      0.1146
   3531 H          11.6106    7.9087    1.7369 H     883  UNL883      0.1146
   3532 H          11.3725    8.5220    0.2482 H     883  UNL883      0.1146
   3533 N          10.8850    8.1686    3.3590 N.3   884  UNL884     -0.3437
   3534 H          10.4433    7.2968    3.0705 H     884  UNL884      0.1146
   3535 H          11.6106    7.9087    4.0256 H     884  UNL884      0.1146
   3536 H          11.3725    8.5220    2.5369 H     884  UNL884      0.1146
   3537 N          10.8850    8.1686    5.6477 N.3   885  UNL885     -0.3437
   3538 H          10.4433    7.2968    5.3592 H     885  UNL885      0.1146
   3539 H          11.6106    7.9087    6.3143 H     885  UNL885      0.1146
   3540 H          11.3725    8.5220    4.8256 H     885  UNL885      0.1146
   3541 N          10.8850    8.1686    7.9365 N.3   886  UNL886     -0.3437
   3542 H          10.4433    7.2968    7.6479 H     886  UNL886      0.1146
   3543 H          11.6106    7.9087    8.6031 H     886  UNL886      0.1146
   3544 H          11.3725    8.5220    7.1144 H     886  UNL886      0.1146
   3545 N          10.8850    8.1686   10.2252 N.3   887  UNL887     -0.3437
   3546 H          10.4433    7.2968    9.9367 H     887  UNL887      0.1146
   3547 H          11.6106    7.9087   10.8918 H     887  UNL887      0.1146
   3548 H          11.3725    8.5220    9.4031 H     887  UNL887      0.1146
   3549 N          10.8850    8.1686   12.5139 N.3   888  UNL888     -0.3437
   3550 H          10.4433    7.2968   12.2254 H     888  UNL888      0.1146
   3551 H          11.6106    7.9087   13.1805 H     888  UNL888      0.1146
   3552 H          11.3725    8.5220   11.6918 H     888  UNL888      0.1146
   3553 N          10.8850    8.1686   14.8026 N.3   889  UNL889     -0.3437
   3554 H          10.4433    7.2968   14.5141 H     889  UNL889      0.1146
   3555 H          11.6106    7.9087   15.4692 H     889  UNL889      0.1146
   3556 H          11.3725    8.5220   13.9805 H     889  UNL889      0.1146
   3557 N          10.8850    8.1686   17.0913 N.3   890  UNL890     -0.3437
   3558 H          10.4433    7.2968   16.8028 H     890  UNL890      0.1146
   3559 H          11.6106    7.9087   17.7579 H     890  UNL890      0.1146
   3560 H          11.3725    8.5220   16.2692 H     890  UNL890      0.1146
   3561 N          10.8850    8.1686   19.3800 N.3   891  UNL891     -0.3437
   3562 H          10.4433    7.2968   19.0915 H     891  UNL891      0.1146
   3563 H          11.6106    7.9087   20.0466 H     891  UNL891      0.1146
   3564 H          11.3725    8.5220   18.5579 H     891  UNL891      0.1146
   3565 N          10.8486    7.8537   21.4152 N.3   892  UNL892     -0.3437
   3566 H          10.9763    7.4705   22.3508 H     892  UNL892      0.1146
   3567 H          10.7535    8.8612   21.5350 H     892  UNL892      0.1146
   3568 H          11.7332    7.7108   20.9300 H     892  UNL892      0.1146
   3569 N          10.8486    7.8537   23.7040 N.3   893  UNL893     -0.3437
   3570 H          10.9763    7.4705   24.6395 H     893  UNL893      0.1146
   3571 H          10.7535    8.8612   23.8237 H     893  UNL893      0.1146
   3572 H          11.7332    7.7108   23.2187 H     893  UNL893      0.1146
   3573 N          10.8850    8.1686   26.2462 N.3   894  UNL894     -0.3437
   3574 H          10.4433    7.2968   25.9577 H     894  UNL894      0.1146
   3575 H          11.6106    7.9087   26.9128 H     894  UNL894      0.1146
   3576 H          11.3725    8.5220   25.4241 H     894  UNL894      0.1146
   3577 N          10.8012    7.9635   29.3203 N.3   895  UNL895     -0.3437
   3578 H          10.9389    7.3700   30.1370 H     895  UNL895      0.1146
   3579 H          11.0804    8.9015   29.6044 H     895  UNL895      0.1146
   3580 H          11.4910    7.6612   28.6338 H     895  UNL895      0.1146
   3581 N          10.8850   10.6125    1.0703 N.3   896  UNL896     -0.3437
   3582 H          10.4433    9.7407    0.7818 H     896  UNL896      0.1146
   3583 H          11.6106   10.3525    1.7369 H     896  UNL896      0.1146
   3584 H          11.3725   10.9658    0.2482 H     896  UNL896      0.1146
   3585 N          10.8850   10.3903    3.0257 N.3   897  UNL897     -0.3437
   3586 H          10.4433   10.6809    3.8968 H     897  UNL897      0.1146
   3587 H          11.6106   11.0799    2.8350 H     897  UNL897      0.1146
   3588 H          11.3725    9.5202    3.2346 H     897  UNL897      0.1146
   3589 N          11.0916   10.6058    5.3090 N.3   898  UNL898     -0.3437
   3590 H          10.4702   10.9286    6.0492 H     898  UNL898      0.1146
   3591 H          11.9978   10.4534    5.7495 H     898  UNL898      0.1146
   3592 H          10.7520    9.6837    5.0393 H     898  UNL898      0.1146
   3593 N          11.0916   10.6058    7.5977 N.3   899  UNL899     -0.3437
   3594 H          10.4702   10.9286    8.3379 H     899  UNL899      0.1146
   3595 H          11.9978   10.4534    8.0382 H     899  UNL899      0.1146
   3596 H          10.7520    9.6837    7.3280 H     899  UNL899      0.1146
   3597 N          10.8486   10.2975    9.9717 N.3   900  UNL900     -0.3437
   3598 H          10.9763    9.9143   10.9072 H     900  UNL900      0.1146
   3599 H          10.7535   11.3050   10.0914 H     900  UNL900      0.1146
   3600 H          11.7332   10.1547    9.4864 H     900  UNL900      0.1146
   3601 N          10.8850   10.6125   12.5139 N.3   901  UNL901     -0.3437
   3602 H          10.4433    9.7407   12.2254 H     901  UNL901      0.1146
   3603 H          11.6106   10.3525   13.1805 H     901  UNL901      0.1146
   3604 H          11.3725   10.9658   11.6918 H     901  UNL901      0.1146
   3605 N          10.8850   10.6125   14.8026 N.3   902  UNL902     -0.3437
   3606 H          10.4433    9.7407   14.5141 H     902  UNL902      0.1146
   3607 H          11.6106   10.3525   15.4692 H     902  UNL902      0.1146
   3608 H          11.3725   10.9658   13.9805 H     902  UNL902      0.1146
   3609 N          10.8850   10.6125   17.0913 N.3   903  UNL903     -0.3437
   3610 H          10.4433    9.7407   16.8028 H     903  UNL903      0.1146
   3611 H          11.6106   10.3525   17.7579 H     903  UNL903      0.1146
   3612 H          11.3725   10.9658   16.2692 H     903  UNL903      0.1146
   3613 N          10.8850   10.6125   19.3800 N.3   904  UNL904     -0.3437
   3614 H          10.4433    9.7407   19.0915 H     904  UNL904      0.1146
   3615 H          11.6106   10.3525   20.0466 H     904  UNL904      0.1146
   3616 H          11.3725   10.9658   18.5579 H     904  UNL904      0.1146
   3617 N          10.8850   10.3903   21.3354 N.3   905  UNL905     -0.3437
   3618 H          10.4433   10.6809   22.2065 H     905  UNL905      0.1146
   3619 H          11.6106   11.0799   21.1447 H     905  UNL905      0.1146
   3620 H          11.3725    9.5202   21.5443 H     905  UNL905      0.1146
   3621 N          10.8850   10.2562   24.0016 N.3   906  UNL906     -0.3437
   3622 H          10.4433   10.7802   23.2474 H     906  UNL906      0.1146
   3623 H          11.6106    9.6907   23.5632 H     906  UNL906      0.1146
   3624 H          11.3725   10.9443   24.5736 H     906  UNL906      0.1146
   3625 N          11.0152   10.3903   26.4227 N.3   907  UNL907     -0.3437
   3626 H          11.9774   10.6809   26.2553 H     907  UNL907      0.1146
   3627 H          10.4282   11.0799   25.9555 H     907  UNL907      0.1146
   3628 H          10.8908    9.5202   25.9071 H     907  UNL907      0.1146
   3629 N          10.8012   10.4074   29.3203 N.3   908  UNL908     -0.3437
   3630 H          10.9389    9.8138   30.1370 H     908  UNL908      0.1146
   3631 H          11.0804   11.3453   29.6044 H     908  UNL908      0.1146
   3632 H          11.4910   10.1050   28.6338 H     908  UNL908      0.1146
   3633 N          10.8850   13.0563    1.0703 N.3   909  UNL909     -0.3437
   3634 H          10.4433   12.1845    0.7818 H     909  UNL909      0.1146
   3635 H          11.6106   12.7963    1.7369 H     909  UNL909      0.1146
   3636 H          11.3725   13.4096    0.2482 H     909  UNL909      0.1146
   3637 N          10.8486   12.7413    3.1055 N.3   910  UNL910     -0.3437
   3638 H          10.9763   12.3581    4.0410 H     910  UNL910      0.1146
   3639 H          10.7535   13.7488    3.2252 H     910  UNL910      0.1146
   3640 H          11.7332   12.5985    2.6203 H     910  UNL910      0.1146
   3641 N          10.8486   12.7413    5.3942 N.3   911  UNL911     -0.3437
   3642 H          10.9763   12.3581    6.3298 H     911  UNL911      0.1146
   3643 H          10.7535   13.7488    5.5140 H     911  UNL911      0.1146
   3644 H          11.7332   12.5985    4.9090 H     911  UNL911      0.1146
   3645 N          10.8850   13.0563    7.9365 N.3   912  UNL912     -0.3437
   3646 H          10.4433   12.1845    7.6479 H     912  UNL912      0.1146
   3647 H          11.6106   12.7963    8.6031 H     912  UNL912      0.1146
   3648 H          11.3725   13.4096    7.1144 H     912  UNL912      0.1146
   3649 N          10.8850   13.0563   10.2252 N.3   913  UNL913     -0.3437
   3650 H          10.4433   12.1845    9.9367 H     913  UNL913      0.1146
   3651 H          11.6106   12.7963   10.8918 H     913  UNL913      0.1146
   3652 H          11.3725   13.4096    9.4031 H     913  UNL913      0.1146
   3653 N          10.8850   12.8341   12.1806 N.3   914  UNL914     -0.3437
   3654 H          10.4433   13.1247   13.0517 H     914  UNL914      0.1146
   3655 H          11.6106   13.5237   11.9899 H     914  UNL914      0.1146
   3656 H          11.3725   11.9640   12.3895 H     914  UNL914      0.1146
   3657 N          10.8850   12.7000   14.8467 N.3   915  UNL915     -0.3437
   3658 H          10.4433   13.2240   14.0926 H     915  UNL915      0.1146
   3659 H          11.6106   12.1345   14.4084 H     915  UNL915      0.1146
   3660 H          11.3725   13.3881   15.4188 H     915  UNL915      0.1146
   3661 N          11.0152   12.8341   17.2679 N.3   916  UNL916     -0.3437
   3662 H          11.9774   13.1247   17.1004 H     916  UNL916      0.1146
   3663 H          10.4282   13.5237   16.8007 H     916  UNL916      0.1146
   3664 H          10.8908   11.9640   16.7523 H     916  UNL916      0.1146
   3665 N          10.8850   12.8341   19.0467 N.3   917  UNL917     -0.3437
   3666 H          10.4433   13.1247   19.9178 H     917  UNL917      0.1146
   3667 H          11.6106   13.5237   18.8560 H     917  UNL917      0.1146
   3668 H          11.3725   11.9640   19.2556 H     917  UNL917      0.1146
   3669 N          10.8850   12.7000   21.7128 N.3   918  UNL918     -0.3437
   3670 H          10.4433   13.2240   20.9587 H     918  UNL918      0.1146
   3671 H          11.6106   12.1345   21.2745 H     918  UNL918      0.1146
   3672 H          11.3725   13.3881   22.2849 H     918  UNL918      0.1146
   3673 N          10.8850   13.0563   23.9575 N.3   919  UNL919     -0.3437
   3674 H          10.4433   12.1845   23.6690 H     919  UNL919      0.1146
   3675 H          11.6106   12.7963   24.6241 H     919  UNL919      0.1146
   3676 H          11.3725   13.4096   23.1354 H     919  UNL919      0.1146
   3677 N          10.8850   13.0563   26.2462 N.3   920  UNL920     -0.3437
   3678 H          10.4433   12.1845   25.9577 H     920  UNL920      0.1146
   3679 H          11.6106   12.7963   26.9128 H     920  UNL920      0.1146
   3680 H          11.3725   13.4096   25.4241 H     920  UNL920      0.1146
   3681 N          10.8012   12.8512   29.3203 N.3   921  UNL921     -0.3437
   3682 H          10.9389   12.2576   30.1370 H     921  UNL921      0.1146
   3683 H          11.0804   13.7891   29.6044 H     921  UNL921      0.1146
   3684 H          11.4910   12.5488   28.6338 H     921  UNL921      0.1146
   3685 N          10.8850   15.5001    1.0703 N.3   922  UNL922     -0.3437
   3686 H          10.4433   14.6283    0.7818 H     922  UNL922      0.1146
   3687 H          11.6106   15.2401    1.7369 H     922  UNL922      0.1146
   3688 H          11.3725   15.8534    0.2482 H     922  UNL922      0.1146
   3689 N          10.8486   15.1851    3.1055 N.3   923  UNL923     -0.3437
   3690 H          10.9763   14.8019    4.0410 H     923  UNL923      0.1146
   3691 H          10.7535   16.1926    3.2252 H     923  UNL923      0.1146
   3692 H          11.7332   15.0423    2.6203 H     923  UNL923      0.1146
   3693 N          10.8850   15.1438    5.6918 N.3   924  UNL924     -0.3437
   3694 H          10.4433   15.6678    4.9377 H     924  UNL924      0.1146
   3695 H          11.6106   14.5784    5.2535 H     924  UNL924      0.1146
   3696 H          11.3725   15.8319    6.2639 H     924  UNL924      0.1146
   3697 N          10.8850   15.5001    7.9365 N.3   925  UNL925     -0.3437
   3698 H          10.4433   14.6283    7.6479 H     925  UNL925      0.1146
   3699 H          11.6106   15.2401    8.6031 H     925  UNL925      0.1146
   3700 H          11.3725   15.8534    7.1144 H     925  UNL925      0.1146
   3701 N          10.8850   15.5001   10.2252 N.3   926  UNL926     -0.3437
   3702 H          10.4433   14.6283    9.9367 H     926  UNL926      0.1146
   3703 H          11.6106   15.2401   10.8918 H     926  UNL926      0.1146
   3704 H          11.3725   15.8534    9.4031 H     926  UNL926      0.1146
   3705 N          10.8486   15.1851   12.2604 N.3   927  UNL927     -0.3437
   3706 H          10.9763   14.8019   13.1959 H     927  UNL927      0.1146
   3707 H          10.7535   16.1926   12.3801 H     927  UNL927      0.1146
   3708 H          11.7332   15.0423   11.7751 H     927  UNL927      0.1146
   3709 N          10.8850   15.5001   14.8026 N.3   928  UNL928     -0.3437
   3710 H          10.4433   14.6283   14.5141 H     928  UNL928      0.1146
   3711 H          11.6106   15.2401   15.4692 H     928  UNL928      0.1146
   3712 H          11.3725   15.8534   13.9805 H     928  UNL928      0.1146
   3713 N          10.8850   15.5001   17.0913 N.3   929  UNL929     -0.3437
   3714 H          10.4433   14.6283   16.8028 H     929  UNL929      0.1146
   3715 H          11.6106   15.2401   17.7579 H     929  UNL929      0.1146
   3716 H          11.3725   15.8534   16.2692 H     929  UNL929      0.1146
   3717 N          10.8486   15.1851   19.1265 N.3   930  UNL930     -0.3437
   3718 H          10.9763   14.8019   20.0621 H     930  UNL930      0.1146
   3719 H          10.7535   16.1926   19.2462 H     930  UNL930      0.1146
   3720 H          11.7332   15.0423   18.6413 H     930  UNL930      0.1146
   3721 N          11.0916   15.4934   21.3300 N.3   931  UNL931     -0.3437
   3722 H          10.4702   15.8162   22.0702 H     931  UNL931      0.1146
   3723 H          11.9978   15.3410   21.7705 H     931  UNL931      0.1146
   3724 H          10.7520   14.5713   21.0603 H     931  UNL931      0.1146
   3725 N          10.8486   15.1851   23.7040 N.3   932  UNL932     -0.3437
   3726 H          10.9763   14.8019   24.6395 H     932  UNL932      0.1146
   3727 H          10.7535   16.1926   23.8237 H     932  UNL932      0.1146
   3728 H          11.7332   15.0423   23.2187 H     932  UNL932      0.1146
   3729 N          10.8850   15.5001   26.2462 N.3   933  UNL933     -0.3437
   3730 H          10.4433   14.6283   25.9577 H     933  UNL933      0.1146
   3731 H          11.6106   15.2401   26.9128 H     933  UNL933      0.1146
   3732 H          11.3725   15.8534   25.4241 H     933  UNL933      0.1146
   3733 N          10.8012   15.2950   29.3203 N.3   934  UNL934     -0.3437
   3734 H          10.9389   14.7014   30.1370 H     934  UNL934      0.1146
   3735 H          11.0804   16.2329   29.6044 H     934  UNL934      0.1146
   3736 H          11.4910   14.9926   28.6338 H     934  UNL934      0.1146
   3737 N          10.8850   17.7217    0.7370 N.3   935  UNL935     -0.3437
   3738 H          10.4433   18.0123    1.6081 H     935  UNL935      0.1146
   3739 H          11.6106   18.4114    0.5463 H     935  UNL935      0.1146
   3740 H          11.3725   16.8517    0.9459 H     935  UNL935      0.1146
   3741 N          11.0916   17.9372    3.0203 N.3   936  UNL936     -0.3437
   3742 H          10.4702   18.2600    3.7605 H     936  UNL936      0.1146
   3743 H          11.9978   17.7848    3.4608 H     936  UNL936      0.1146
   3744 H          10.7520   17.0151    2.7506 H     936  UNL936      0.1146
   3745 N          10.8850   17.7217    5.3144 N.3   937  UNL937     -0.3437
   3746 H          10.4433   18.0123    6.1855 H     937  UNL937      0.1146
   3747 H          11.6106   18.4114    5.1237 H     937  UNL937      0.1146
   3748 H          11.3725   16.8517    5.5233 H     937  UNL937      0.1146
   3749 N          10.8850   17.7217    7.6031 N.3   938  UNL938     -0.3437
   3750 H          10.4433   18.0123    8.4742 H     938  UNL938      0.1146
   3751 H          11.6106   18.4114    7.4124 H     938  UNL938      0.1146
   3752 H          11.3725   16.8517    7.8120 H     938  UNL938      0.1146
   3753 N          11.0916   17.9372    9.8864 N.3   939  UNL939     -0.3437
   3754 H          10.4702   18.2600   10.6266 H     939  UNL939      0.1146
   3755 H          11.9978   17.7848   10.3270 H     939  UNL939      0.1146
   3756 H          10.7520   17.0151    9.6167 H     939  UNL939      0.1146
   3757 N          10.8850   17.7217   12.1806 N.3   940  UNL940     -0.3437
   3758 H          10.4433   18.0123   13.0517 H     940  UNL940      0.1146
   3759 H          11.6106   18.4114   11.9899 H     940  UNL940      0.1146
   3760 H          11.3725   16.8517   12.3895 H     940  UNL940      0.1146
   3761 N          10.8850   17.7217   14.4693 N.3   941  UNL941     -0.3437
   3762 H          10.4433   18.0123   15.3404 H     941  UNL941      0.1146
   3763 H          11.6106   18.4114   14.2786 H     941  UNL941      0.1146
   3764 H          11.3725   16.8517   14.6782 H     941  UNL941      0.1146
   3765 N          10.8850   17.7217   16.7580 N.3   942  UNL942     -0.3437
   3766 H          10.4433   18.0123   17.6291 H     942  UNL942      0.1146
   3767 H          11.6106   18.4114   16.5673 H     942  UNL942      0.1146
   3768 H          11.3725   16.8517   16.9669 H     942  UNL942      0.1146
   3769 N          11.0916   17.9372   19.0413 N.3   943  UNL943     -0.3437
   3770 H          10.4702   18.2600   19.7815 H     943  UNL943      0.1146
   3771 H          11.9978   17.7848   19.4818 H     943  UNL943      0.1146
   3772 H          10.7520   17.0151   18.7716 H     943  UNL943      0.1146
   3773 N          10.8850   17.7217   21.3354 N.3   944  UNL944     -0.3437
   3774 H          10.4433   18.0123   22.2065 H     944  UNL944      0.1146
   3775 H          11.6106   18.4114   21.1447 H     944  UNL944      0.1146
   3776 H          11.3725   16.8517   21.5443 H     944  UNL944      0.1146
   3777 N          10.8850   17.7217   23.6241 N.3   945  UNL945     -0.3437
   3778 H          10.4433   18.0123   24.4952 H     945  UNL945      0.1146
   3779 H          11.6106   18.4114   23.4334 H     945  UNL945      0.1146
   3780 H          11.3725   16.8517   23.8330 H     945  UNL945      0.1146
   3781 N          10.8850   17.7217   25.9128 N.3   946  UNL946     -0.3437
   3782 H          10.4433   18.0123   26.7840 H     946  UNL946      0.1146
   3783 H          11.6106   18.4114   25.7221 H     946  UNL946      0.1146
   3784 H          11.3725   16.8517   26.1217 H     946  UNL946      0.1146
   3785 N          10.8012   17.7388   29.3203 N.3   947  UNL947     -0.3437
   3786 H          10.9389   17.1452   30.1370 H     947  UNL947      0.1146
   3787 H          11.0804   18.6767   29.6044 H     947  UNL947      0.1146
   3788 H          11.4910   17.4364   28.6338 H     947  UNL947      0.1146
   3789 N          10.8850   20.3877    1.0703 N.3   948  UNL948     -0.3437
   3790 H          10.4433   19.5159    0.7818 H     948  UNL948      0.1146
   3791 H          11.6106   20.1278    1.7369 H     948  UNL948      0.1146
   3792 H          11.3725   20.7410    0.2482 H     948  UNL948      0.1146
   3793 N          10.8850   20.3877    3.3590 N.3   949  UNL949     -0.3437
   3794 H          10.4433   19.5159    3.0705 H     949  UNL949      0.1146
   3795 H          11.6106   20.1278    4.0256 H     949  UNL949      0.1146
   3796 H          11.3725   20.7410    2.5369 H     949  UNL949      0.1146
   3797 N          10.8850   20.3877    5.6477 N.3   950  UNL950     -0.3437
   3798 H          10.4433   19.5159    5.3592 H     950  UNL950      0.1146
   3799 H          11.6106   20.1278    6.3143 H     950  UNL950      0.1146
   3800 H          11.3725   20.7410    4.8256 H     950  UNL950      0.1146
   3801 N          10.8850   20.3877    7.9365 N.3   951  UNL951     -0.3437
   3802 H          10.4433   19.5159    7.6479 H     951  UNL951      0.1146
   3803 H          11.6106   20.1278    8.6031 H     951  UNL951      0.1146
   3804 H          11.3725   20.7410    7.1144 H     951  UNL951      0.1146
   3805 N          10.8850   20.3877   10.2252 N.3   952  UNL952     -0.3437
   3806 H          10.4433   19.5159    9.9367 H     952  UNL952      0.1146
   3807 H          11.6106   20.1278   10.8918 H     952  UNL952      0.1146
   3808 H          11.3725   20.7410    9.4031 H     952  UNL952      0.1146
   3809 N          10.8850   20.3877   12.5139 N.3   953  UNL953     -0.3437
   3810 H          10.4433   19.5159   12.2254 H     953  UNL953      0.1146
   3811 H          11.6106   20.1278   13.1805 H     953  UNL953      0.1146
   3812 H          11.3725   20.7410   11.6918 H     953  UNL953      0.1146
   3813 N          10.8850   20.3877   14.8026 N.3   954  UNL954     -0.3437
   3814 H          10.4433   19.5159   14.5141 H     954  UNL954      0.1146
   3815 H          11.6106   20.1278   15.4692 H     954  UNL954      0.1146
   3816 H          11.3725   20.7410   13.9805 H     954  UNL954      0.1146
   3817 N          10.8850   20.3877   17.0913 N.3   955  UNL955     -0.3437
   3818 H          10.4433   19.5159   16.8028 H     955  UNL955      0.1146
   3819 H          11.6106   20.1278   17.7579 H     955  UNL955      0.1146
   3820 H          11.3725   20.7410   16.2692 H     955  UNL955      0.1146
   3821 N          10.8850   20.3877   19.3800 N.3   956  UNL956     -0.3437
   3822 H          10.4433   19.5159   19.0915 H     956  UNL956      0.1146
   3823 H          11.6106   20.1278   20.0466 H     956  UNL956      0.1146
   3824 H          11.3725   20.7410   18.5579 H     956  UNL956      0.1146
   3825 N          10.8850   20.1656   21.3354 N.3   957  UNL957     -0.3437
   3826 H          10.4433   20.4562   22.2065 H     957  UNL957      0.1146
   3827 H          11.6106   20.8552   21.1447 H     957  UNL957      0.1146
   3828 H          11.3725   19.2955   21.5443 H     957  UNL957      0.1146
   3829 N          10.8850   20.0314   24.0016 N.3   958  UNL958     -0.3437
   3830 H          10.4433   20.5554   23.2474 H     958  UNL958      0.1146
   3831 H          11.6106   19.4660   23.5632 H     958  UNL958      0.1146
   3832 H          11.3725   20.7195   24.5736 H     958  UNL958      0.1146
   3833 N          10.8850   20.3877   26.2462 N.3   959  UNL959     -0.3437
   3834 H          10.4433   19.5159   25.9577 H     959  UNL959      0.1146
   3835 H          11.6106   20.1278   26.9128 H     959  UNL959      0.1146
   3836 H          11.3725   20.7410   25.4241 H     959  UNL959      0.1146
   3837 N          10.8012   20.1826   29.3203 N.3   960  UNL960     -0.3437
   3838 H          10.9389   19.5890   30.1370 H     960  UNL960      0.1146
   3839 H          11.0804   21.1205   29.6044 H     960  UNL960      0.1146
   3840 H          11.4910   19.8802   28.6338 H     960  UNL960      0.1146
   3841 N          10.8850   22.8315    1.0703 N.3   961  UNL961     -0.3437
   3842 H          10.4433   21.9597    0.7818 H     961  UNL961      0.1146
   3843 H          11.6106   22.5716    1.7369 H     961  UNL961      0.1146
   3844 H          11.3725   23.1848    0.2482 H     961  UNL961      0.1146
   3845 N          10.8850   22.8315    3.3590 N.3   962  UNL962     -0.3437
   3846 H          10.4433   21.9597    3.0705 H     962  UNL962      0.1146
   3847 H          11.6106   22.5716    4.0256 H     962  UNL962      0.1146
   3848 H          11.3725   23.1848    2.5369 H     962  UNL962      0.1146
   3849 N          10.8850   22.8315    5.6477 N.3   963  UNL963     -0.3437
   3850 H          10.4433   21.9597    5.3592 H     963  UNL963      0.1146
   3851 H          11.6106   22.5716    6.3143 H     963  UNL963      0.1146
   3852 H          11.3725   23.1848    4.8256 H     963  UNL963      0.1146
   3853 N          10.8850   22.8315    7.9365 N.3   964  UNL964     -0.3437
   3854 H          10.4433   21.9597    7.6479 H     964  UNL964      0.1146
   3855 H          11.6106   22.5716    8.6031 H     964  UNL964      0.1146
   3856 H          11.3725   23.1848    7.1144 H     964  UNL964      0.1146
   3857 N          10.8850   22.6094    9.8918 N.3   965  UNL965     -0.3437
   3858 H          10.4433   22.9000   10.7629 H     965  UNL965      0.1146
   3859 H          11.6106   23.2990    9.7011 H     965  UNL965      0.1146
   3860 H          11.3725   21.7393   10.1007 H     965  UNL965      0.1146
   3861 N          10.8850   22.6094   12.1806 N.3   966  UNL966     -0.3437
   3862 H          10.4433   22.9000   13.0517 H     966  UNL966      0.1146
   3863 H          11.6106   23.2990   11.9899 H     966  UNL966      0.1146
   3864 H          11.3725   21.7393   12.3895 H     966  UNL966      0.1146
   3865 N          10.8850   22.4752   14.8467 N.3   967  UNL967     -0.3437
   3866 H          10.4433   22.9992   14.0926 H     967  UNL967      0.1146
   3867 H          11.6106   21.9098   14.4084 H     967  UNL967      0.1146
   3868 H          11.3725   23.1633   15.4188 H     967  UNL967      0.1146
   3869 N          11.0152   22.6094   17.2679 N.3   968  UNL968     -0.3437
   3870 H          11.9774   22.9000   17.1004 H     968  UNL968      0.1146
   3871 H          10.4282   23.2990   16.8007 H     968  UNL968      0.1146
   3872 H          10.8908   21.7393   16.7523 H     968  UNL968      0.1146
   3873 N          10.8850   22.8315   19.3800 N.3   969  UNL969     -0.3437
   3874 H          10.4433   21.9597   19.0915 H     969  UNL969      0.1146
   3875 H          11.6106   22.5716   20.0466 H     969  UNL969      0.1146
   3876 H          11.3725   23.1848   18.5579 H     969  UNL969      0.1146
   3877 N          10.8850   22.8315   21.6687 N.3   970  UNL970     -0.3437
   3878 H          10.4433   21.9597   21.3802 H     970  UNL970      0.1146
   3879 H          11.6106   22.5716   22.3353 H     970  UNL970      0.1146
   3880 H          11.3725   23.1848   20.8466 H     970  UNL970      0.1146
   3881 N          10.8850   22.8315   23.9575 N.3   971  UNL971     -0.3437
   3882 H          10.4433   21.9597   23.6690 H     971  UNL971      0.1146
   3883 H          11.6106   22.5716   24.6241 H     971  UNL971      0.1146
   3884 H          11.3725   23.1848   23.1354 H     971  UNL971      0.1146
   3885 N          10.8850   22.8315   26.2462 N.3   972  UNL972     -0.3437
   3886 H          10.4433   21.9597   25.9577 H     972  UNL972      0.1146
   3887 H          11.6106   22.5716   26.9128 H     972  UNL972      0.1146
   3888 H          11.3725   23.1848   25.4241 H     972  UNL972      0.1146
   3889 N          10.8012   22.6264   29.3203 N.3   973  UNL973     -0.3437
   3890 H          10.9389   22.0328   30.1370 H     973  UNL973      0.1146
   3891 H          11.0804   23.5643   29.6044 H     973  UNL973      0.1146
   3892 H          11.4910   22.3240   28.6338 H     973  UNL973      0.1146
   3893 N          10.8850   25.2753    1.0703 N.3   974  UNL974     -0.3437
   3894 H          10.4433   24.4035    0.7818 H     974  UNL974      0.1146
   3895 H          11.6106   25.0154    1.7369 H     974  UNL974      0.1146
   3896 H          11.3725   25.6286    0.2482 H     974  UNL974      0.1146
   3897 N          10.8850   25.2753    3.3590 N.3   975  UNL975     -0.3437
   3898 H          10.4433   24.4035    3.0705 H     975  UNL975      0.1146
   3899 H          11.6106   25.0154    4.0256 H     975  UNL975      0.1146
   3900 H          11.3725   25.6286    2.5369 H     975  UNL975      0.1146
   3901 N          10.8850   25.2753    5.6477 N.3   976  UNL976     -0.3437
   3902 H          10.4433   24.4035    5.3592 H     976  UNL976      0.1146
   3903 H          11.6106   25.0154    6.3143 H     976  UNL976      0.1146
   3904 H          11.3725   25.6286    4.8256 H     976  UNL976      0.1146
   3905 N          10.8850   25.2753    7.9365 N.3   977  UNL977     -0.3437
   3906 H          10.4433   24.4035    7.6479 H     977  UNL977      0.1146
   3907 H          11.6106   25.0154    8.6031 H     977  UNL977      0.1146
   3908 H          11.3725   25.6286    7.1144 H     977  UNL977      0.1146
   3909 N          10.8850   25.0532    9.8918 N.3   978  UNL978     -0.3437
   3910 H          10.4433   25.3438   10.7629 H     978  UNL978      0.1146
   3911 H          11.6106   25.7428    9.7011 H     978  UNL978      0.1146
   3912 H          11.3725   24.1831   10.1007 H     978  UNL978      0.1146
   3913 N          11.1222   24.8620   12.2090 N.3   979  UNL979     -0.3437
   3914 H          10.1778   24.8640   12.5915 H     979  UNL979      0.1146
   3915 H          11.2619   25.7852   11.8007 H     979  UNL979      0.1146
   3916 H          11.7497   24.8116   13.0103 H     979  UNL979      0.1146
   3917 N          11.0916   25.2686   14.4638 N.3   980  UNL980     -0.3437
   3918 H          10.4702   25.5914   15.2040 H     980  UNL980      0.1146
   3919 H          11.9978   25.1162   14.9044 H     980  UNL980      0.1146
   3920 H          10.7520   24.3465   14.1941 H     980  UNL980      0.1146
   3921 N          11.0916   25.2686   16.7525 N.3   981  UNL981     -0.3437
   3922 H          10.4702   25.5914   17.4928 H     981  UNL981      0.1146
   3923 H          11.9978   25.1162   17.1931 H     981  UNL981      0.1146
   3924 H          10.7520   24.3465   16.4829 H     981  UNL981      0.1146
   3925 N          10.8486   24.9603   19.1265 N.3   982  UNL982     -0.3437
   3926 H          10.9763   24.5771   20.0621 H     982  UNL982      0.1146
   3927 H          10.7535   25.9678   19.2462 H     982  UNL982      0.1146
   3928 H          11.7332   24.8175   18.6413 H     982  UNL982      0.1146
   3929 N          10.8486   24.9603   21.4152 N.3   983  UNL983     -0.3437
   3930 H          10.9763   24.5771   22.3508 H     983  UNL983      0.1146
   3931 H          10.7535   25.9678   21.5350 H     983  UNL983      0.1146
   3932 H          11.7332   24.8175   20.9300 H     983  UNL983      0.1146
   3933 N          10.8486   24.9603   23.7040 N.3   984  UNL984     -0.3437
   3934 H          10.9763   24.5771   24.6395 H     984  UNL984      0.1146
   3935 H          10.7535   25.9678   23.8237 H     984  UNL984      0.1146
   3936 H          11.7332   24.8175   23.2187 H     984  UNL984      0.1146
   3937 N          10.8850   25.2753   26.2462 N.3   985  UNL985     -0.3437
   3938 H          10.4433   24.4035   25.9577 H     985  UNL985      0.1146
   3939 H          11.6106   25.0154   26.9128 H     985  UNL985      0.1146
   3940 H          11.3725   25.6286   25.4241 H     985  UNL985      0.1146
   3941 N          10.8012   25.0702   29.3203 N.3   986  UNL986     -0.3437
   3942 H          10.9389   24.4766   30.1370 H     986  UNL986      0.1146
   3943 H          11.0804   26.0081   29.6044 H     986  UNL986      0.1146
   3944 H          11.4910   24.7678   28.6338 H     986  UNL986      0.1146
   3945 N          10.8850   27.4970    0.7370 N.3   987  UNL987     -0.3437
   3946 H          10.4433   27.7876    1.6081 H     987  UNL987      0.1146
   3947 H          11.6106   28.1866    0.5463 H     987  UNL987      0.1146
   3948 H          11.3725   26.6269    0.9459 H     987  UNL987      0.1146
   3949 N          10.8850   27.4970    3.0257 N.3   988  UNL988     -0.3437
   3950 H          10.4433   27.7876    3.8968 H     988  UNL988      0.1146
   3951 H          11.6106   28.1866    2.8350 H     988  UNL988      0.1146
   3952 H          11.3725   26.6269    3.2346 H     988  UNL988      0.1146
   3953 N          10.8850   27.4970    5.3144 N.3   989  UNL989     -0.3437
   3954 H          10.4433   27.7876    6.1855 H     989  UNL989      0.1146
   3955 H          11.6106   28.1866    5.1237 H     989  UNL989      0.1146
   3956 H          11.3725   26.6269    5.5233 H     989  UNL989      0.1146
   3957 N          10.8850   27.4970    7.6031 N.3   990  UNL990     -0.3437
   3958 H          10.4433   27.7876    8.4742 H     990  UNL990      0.1146
   3959 H          11.6106   28.1866    7.4124 H     990  UNL990      0.1146
   3960 H          11.3725   26.6269    7.8120 H     990  UNL990      0.1146
   3961 N          10.8850   27.3629   10.2693 N.3   991  UNL991     -0.3437
   3962 H          10.4433   27.8868    9.5151 H     991  UNL991      0.1146
   3963 H          11.6106   26.7974    9.8309 H     991  UNL991      0.1146
   3964 H          11.3725   28.0509   10.8413 H     991  UNL991      0.1146
   3965 N          10.8850   27.4970   12.1806 N.3   992  UNL992     -0.3437
   3966 H          10.4433   27.7876   13.0517 H     992  UNL992      0.1146
   3967 H          11.6106   28.1866   11.9899 H     992  UNL992      0.1146
   3968 H          11.3725   26.6269   12.3895 H     992  UNL992      0.1146
   3969 N          11.0916   27.7124   14.4638 N.3   993  UNL993     -0.3437
   3970 H          10.4702   28.0352   15.2040 H     993  UNL993      0.1146
   3971 H          11.9978   27.5600   14.9044 H     993  UNL993      0.1146
   3972 H          10.7520   26.7903   14.1941 H     993  UNL993      0.1146
   3973 N          10.8486   27.4041   16.8378 N.3   994  UNL994     -0.3437
   3974 H          10.9763   27.0209   17.7733 H     994  UNL994      0.1146
   3975 H          10.7535   28.4116   16.9575 H     994  UNL994      0.1146
   3976 H          11.7332   27.2613   16.3526 H     994  UNL994      0.1146
   3977 N          11.0152   27.4970   19.5566 N.3   995  UNL995     -0.3437
   3978 H          11.9774   27.7876   19.3891 H     995  UNL995      0.1146
   3979 H          10.4282   28.1866   19.0894 H     995  UNL995      0.1146
   3980 H          10.8908   26.6269   19.0410 H     995  UNL995      0.1146
   3981 N          10.8850   27.4970   21.3354 N.3   996  UNL996     -0.3437
   3982 H          10.4433   27.7876   22.2065 H     996  UNL996      0.1146
   3983 H          11.6106   28.1866   21.1447 H     996  UNL996      0.1146
   3984 H          11.3725   26.6269   21.5443 H     996  UNL996      0.1146
   3985 N          10.8850   27.4970   23.6241 N.3   997  UNL997     -0.3437
   3986 H          10.4433   27.7876   24.4952 H     997  UNL997      0.1146
   3987 H          11.6106   28.1866   23.4334 H     997  UNL997      0.1146
   3988 H          11.3725   26.6269   23.8330 H     997  UNL997      0.1146
   3989 N          10.8850   27.4970   25.9128 N.3   998  UNL998     -0.3437
   3990 H          10.4433   27.7876   26.7840 H     998  UNL998      0.1146
   3991 H          11.6106   28.1866   25.7221 H     998  UNL998      0.1146
   3992 H          11.3725   26.6269   26.1217 H     998  UNL998      0.1146
   3993 N          10.8012   27.5140   29.3203 N.3   999  UNL999     -0.3437
   3994 H          10.9389   26.9204   30.1370 H     999  UNL999      0.1146
   3995 H          11.0804   28.4519   29.6044 H     999  UNL999      0.1146
   3996 H          11.4910   27.2116   28.6338 H     999  UNL999      0.1146
   3997 N          10.8850   30.9408    0.7370 N.3   1000  UNL1000    -0.3437
   3998 H          10.4433   31.2314    1.6081 H     1000  UNL1000     0.1146
   3999 H          11.6106   31.6304    0.5463 H     1000  UNL1000     0.1146
   4000 H          11.3725   30.0707    0.9459 H     1000  UNL1000     0.1146
   4001 N          10.8850   30.9408    3.0257 N.3   1001  UNL1001    -0.3437
   4002 H          10.4433   31.2314    3.8968 H     1001  UNL1001     0.1146
   4003 H          11.6106   31.6304    2.8350 H     1001  UNL1001     0.1146
   4004 H          11.3725   30.0707    3.2346 H     1001  UNL1001     0.1146
   4005 N          10.8850   30.9408    5.3144 N.3   1002  UNL1002    -0.3437
   4006 H          10.4433   31.2314    6.1855 H     1002  UNL1002     0.1146
   4007 H          11.6106   31.6304    5.1237 H     1002  UNL1002     0.1146
   4008 H          11.3725   30.0707    5.5233 H     1002  UNL1002     0.1146
   4009 N          11.0152   29.9408    8.1130 N.3   1003  UNL1003    -0.3437
   4010 H          11.9774   30.2314    7.9456 H     1003  UNL1003     0.1146
   4011 H          10.4282   30.6304    7.6458 H     1003  UNL1003     0.1146
   4012 H          10.8908   29.0707    7.5974 H     1003  UNL1003     0.1146
   4013 N          10.8850   30.9408    9.8918 N.3   1004  UNL1004    -0.3437
   4014 H          10.4433   31.2314   10.7629 H     1004  UNL1004     0.1146
   4015 H          11.6106   31.6304    9.7011 H     1004  UNL1004     0.1146
   4016 H          11.3725   30.0707   10.1007 H     1004  UNL1004     0.1146
   4017 N          10.8850   30.9408   12.1806 N.3   1005  UNL1005    -0.3437
   4018 H          10.4433   31.2314   13.0517 H     1005  UNL1005     0.1146
   4019 H          11.6106   31.6304   11.9899 H     1005  UNL1005     0.1146
   4020 H          11.3725   30.0707   12.3895 H     1005  UNL1005     0.1146
   4021 N          11.0627   31.1952   14.5027 N.3   1006  UNL1006    -0.3437
   4022 H          10.2567   31.1453   15.1242 H     1006  UNL1006     0.1146
   4023 H          11.8815   31.2400   15.1077 H     1006  UNL1006     0.1146
   4024 H          11.1106   30.2928   14.0318 H     1006  UNL1006     0.1146
   4025 N          10.8850   30.9408   16.7580 N.3   1007  UNL1007    -0.3437
   4026 H          10.4433   31.2314   17.6291 H     1007  UNL1007     0.1146
   4027 H          11.6106   31.6304   16.5673 H     1007  UNL1007     0.1146
   4028 H          11.3725   30.0707   16.9669 H     1007  UNL1007     0.1146
   4029 N          10.8850   30.9408   19.0467 N.3   1008  UNL1008    -0.3437
   4030 H          10.4433   31.2314   19.9178 H     1008  UNL1008     0.1146
   4031 H          11.6106   31.6304   18.8560 H     1008  UNL1008     0.1146
   4032 H          11.3725   30.0707   19.2556 H     1008  UNL1008     0.1146
   4033 N          10.8850   30.9408   21.3354 N.3   1009  UNL1009    -0.3437
   4034 H          10.4433   31.2314   22.2065 H     1009  UNL1009     0.1146
   4035 H          11.6106   31.6304   21.1447 H     1009  UNL1009     0.1146
   4036 H          11.3725   30.0707   21.5443 H     1009  UNL1009     0.1146
   4037 N          11.0749   30.7107   23.7016 N.3   1010  UNL1010    -0.3437
   4038 H          10.1404   31.0854   23.8585 H     1010  UNL1010     0.1146
   4039 H          11.5887   31.4367   23.2043 H     1010  UNL1010     0.1146
   4040 H          11.5075   30.6405   24.6215 H     1010  UNL1010     0.1146
   4041 N          10.8850   30.9408   25.9128 N.3   1011  UNL1011    -0.3437
   4042 H          10.4433   31.2314   26.7840 H     1011  UNL1011     0.1146
   4043 H          11.6106   31.6304   25.7221 H     1011  UNL1011     0.1146
   4044 H          11.3725   30.0707   26.1217 H     1011  UNL1011     0.1146
   4045 N          10.8850   29.9408   28.2016 N.3   1012  UNL1012    -0.3437
   4046 H          10.4433   30.2314   29.0727 H     1012  UNL1012     0.1146
   4047 H          11.6106   30.6304   28.0109 H     1012  UNL1012     0.1146
   4048 H          11.3725   29.0707   28.4105 H     1012  UNL1012     0.1146
   4049 N          13.2093    0.6151    1.2469 N.3   1013  UNL1013    -0.3437
   4050 H          14.1715    0.9057    1.0794 H     1013  UNL1013     0.1146
   4051 H          12.6223    1.3047    0.7797 H     1013  UNL1013     0.1146
   4052 H          13.0849   -0.2550    0.7313 H     1013  UNL1013     0.1146
   4053 N          13.0792    0.6151    3.0257 N.3   1014  UNL1014    -0.3437
   4054 H          12.6375    0.9057    3.8968 H     1014  UNL1014     0.1146
   4055 H          13.8048    1.3047    2.8350 H     1014  UNL1014     0.1146
   4056 H          13.5667   -0.2550    3.2346 H     1014  UNL1014     0.1146
   4057 N          13.0792    0.4810    5.6918 N.3   1015  UNL1015    -0.3437
   4058 H          12.6375    1.0050    4.9377 H     1015  UNL1015     0.1146
   4059 H          13.8048   -0.0845    5.2535 H     1015  UNL1015     0.1146
   4060 H          13.5667    1.1691    6.2639 H     1015  UNL1015     0.1146
   4061 N          13.2093    0.6151    8.1130 N.3   1016  UNL1016    -0.3437
   4062 H          14.1715    0.9057    7.9456 H     1016  UNL1016     0.1146
   4063 H          12.6223    1.3047    7.6458 H     1016  UNL1016     0.1146
   4064 H          13.0849   -0.2550    7.5974 H     1016  UNL1016     0.1146
   4065 N          13.0792    0.6151    9.8918 N.3   1017  UNL1017    -0.3437
   4066 H          12.6375    0.9057   10.7629 H     1017  UNL1017     0.1146
   4067 H          13.8048    1.3047    9.7011 H     1017  UNL1017     0.1146
   4068 H          13.5667   -0.2550   10.1007 H     1017  UNL1017     0.1146
   4069 N          13.0792    0.6151   12.1806 N.3   1018  UNL1018    -0.3437
   4070 H          12.6375    0.9057   13.0517 H     1018  UNL1018     0.1146
   4071 H          13.8048    1.3047   11.9899 H     1018  UNL1018     0.1146
   4072 H          13.5667   -0.2550   12.3895 H     1018  UNL1018     0.1146
   4073 N          13.2858    0.8305   14.4638 N.3   1019  UNL1019    -0.3437
   4074 H          12.6643    1.1534   15.2040 H     1019  UNL1019     0.1146
   4075 H          14.1919    0.6782   14.9044 H     1019  UNL1019     0.1146
   4076 H          12.9461   -0.0916   14.1941 H     1019  UNL1019     0.1146
   4077 N          13.2858    0.8305   16.7525 N.3   1020  UNL1020    -0.3437
   4078 H          12.6643    1.1534   17.4928 H     1020  UNL1020     0.1146
   4079 H          14.1919    0.6782   17.1931 H     1020  UNL1020     0.1146
   4080 H          12.9461   -0.0916   16.4829 H     1020  UNL1020     0.1146
   4081 N          13.2858    0.8305   19.0413 N.3   1021  UNL1021    -0.3437
   4082 H          12.6643    1.1534   19.7815 H     1021  UNL1021     0.1146
   4083 H          14.1919    0.6782   19.4818 H     1021  UNL1021     0.1146
   4084 H          12.9461   -0.0916   18.7716 H     1021  UNL1021     0.1146
   4085 N          13.0792    0.6151   21.3354 N.3   1022  UNL1022    -0.3437
   4086 H          12.6375    0.9057   22.2065 H     1022  UNL1022     0.1146
   4087 H          13.8048    1.3047   21.1447 H     1022  UNL1022     0.1146
   4088 H          13.5667   -0.2550   21.5443 H     1022  UNL1022     0.1146
   4089 N          13.2858    0.8305   23.6187 N.3   1023  UNL1023    -0.3437
   4090 H          12.6643    1.1534   24.3589 H     1023  UNL1023     0.1146
   4091 H          14.1919    0.6782   24.0592 H     1023  UNL1023     0.1146
   4092 H          12.9461   -0.0916   23.3490 H     1023  UNL1023     0.1146
   4093 N          13.0427    0.5223   25.9927 N.3   1024  UNL1024    -0.3437
   4094 H          13.1705    0.1391   26.9282 H     1024  UNL1024     0.1146
   4095 H          12.9476    1.5298   26.1124 H     1024  UNL1024     0.1146
   4096 H          13.9273    0.3794   25.5074 H     1024  UNL1024     0.1146
   4097 N          13.3047   -1.2840   28.1394 N.3   1025  UNL1025    -0.3437
   4098 H          12.3949   -1.6979   28.3375 H     1025  UNL1025     0.1146
   4099 H          13.3918   -0.4845   28.7652 H     1025  UNL1025     0.1146
   4100 H          13.9966   -1.9630   28.4534 H     1025  UNL1025     0.1146
   4101 N          13.0792    3.2810    1.0703 N.3   1026  UNL1026    -0.3437
   4102 H          12.6375    2.4092    0.7818 H     1026  UNL1026     0.1146
   4103 H          13.8048    3.0211    1.7369 H     1026  UNL1026     0.1146
   4104 H          13.5667    3.6344    0.2482 H     1026  UNL1026     0.1146
   4105 N          13.0427    2.9661    3.1055 N.3   1027  UNL1027    -0.3437
   4106 H          13.1705    2.5829    4.0410 H     1027  UNL1027     0.1146
   4107 H          12.9476    3.9736    3.2252 H     1027  UNL1027     0.1146
   4108 H          13.9273    2.8232    2.6203 H     1027  UNL1027     0.1146
   4109 N          13.0792    2.9248    5.6918 N.3   1028  UNL1028    -0.3437
   4110 H          12.6375    3.4488    4.9377 H     1028  UNL1028     0.1146
   4111 H          13.8048    2.3593    5.2535 H     1028  UNL1028     0.1146
   4112 H          13.5667    3.6129    6.2639 H     1028  UNL1028     0.1146
   4113 N          13.0792    3.2810    7.9365 N.3   1029  UNL1029    -0.3437
   4114 H          12.6375    2.4092    7.6479 H     1029  UNL1029     0.1146
   4115 H          13.8048    3.0211    8.6031 H     1029  UNL1029     0.1146
   4116 H          13.5667    3.6344    7.1144 H     1029  UNL1029     0.1146
   4117 N          13.0427    2.9661    9.9717 N.3   1030  UNL1030    -0.3437
   4118 H          13.1705    2.5829   10.9072 H     1030  UNL1030     0.1146
   4119 H          12.9476    3.9736   10.0914 H     1030  UNL1030     0.1146
   4120 H          13.9273    2.8232    9.4864 H     1030  UNL1030     0.1146
   4121 N          13.0792    2.9248   12.5580 N.3   1031  UNL1031    -0.3437
   4122 H          12.6375    3.4488   11.8039 H     1031  UNL1031     0.1146
   4123 H          13.8048    2.3593   12.1196 H     1031  UNL1031     0.1146
   4124 H          13.5667    3.6129   13.1301 H     1031  UNL1031     0.1146
   4125 N          13.0792    3.2810   14.8026 N.3   1032  UNL1032    -0.3437
   4126 H          12.6375    2.4092   14.5141 H     1032  UNL1032     0.1146
   4127 H          13.8048    3.0211   15.4692 H     1032  UNL1032     0.1146
   4128 H          13.5667    3.6344   13.9805 H     1032  UNL1032     0.1146
   4129 N          13.0792    3.2810   17.0913 N.3   1033  UNL1033    -0.3437
   4130 H          12.6375    2.4092   16.8028 H     1033  UNL1033     0.1146
   4131 H          13.8048    3.0211   17.7579 H     1033  UNL1033     0.1146
   4132 H          13.5667    3.6344   16.2692 H     1033  UNL1033     0.1146
   4133 N          13.0792    3.0589   19.0467 N.3   1034  UNL1034    -0.3437
   4134 H          12.6375    3.3495   19.9178 H     1034  UNL1034     0.1146
   4135 H          13.8048    3.7485   18.8560 H     1034  UNL1034     0.1146
   4136 H          13.5667    2.1888   19.2556 H     1034  UNL1034     0.1146
   4137 N          13.3164    2.8678   21.3639 N.3   1035  UNL1035    -0.3437
   4138 H          12.3719    2.8698   21.7464 H     1035  UNL1035     0.1146
   4139 H          13.4560    3.7909   20.9556 H     1035  UNL1035     0.1146
   4140 H          13.9438    2.8173   22.1652 H     1035  UNL1035     0.1146
   4141 N          13.2858    3.2743   23.6187 N.3   1036  UNL1036    -0.3437
   4142 H          12.6643    3.5972   24.3589 H     1036  UNL1036     0.1146
   4143 H          14.1919    3.1220   24.0592 H     1036  UNL1036     0.1146
   4144 H          12.9461    2.3523   23.3490 H     1036  UNL1036     0.1146
   4145 N          13.0792    3.0589   25.9128 N.3   1037  UNL1037    -0.3437
   4146 H          12.6375    3.3495   26.7840 H     1037  UNL1037     0.1146
   4147 H          13.8048    3.7485   25.7221 H     1037  UNL1037     0.1146
   4148 H          13.5667    2.1888   26.1217 H     1037  UNL1037     0.1146
   4149 N          13.0792    1.2810   28.5349 N.3   1038  UNL1038    -0.3437
   4150 H          12.6375    0.4092   28.2464 H     1038  UNL1038     0.1146
   4151 H          13.8048    1.0211   29.2015 H     1038  UNL1038     0.1146
   4152 H          13.5667    1.6344   27.7128 H     1038  UNL1038     0.1146
   4153 N          13.0792    5.5027    0.7370 N.3   1039  UNL1039    -0.3437
   4154 H          12.6375    5.7933    1.6081 H     1039  UNL1039     0.1146
   4155 H          13.8048    6.1923    0.5463 H     1039  UNL1039     0.1146
   4156 H          13.5667    4.6326    0.9459 H     1039  UNL1039     0.1146
   4157 N          13.0792    5.5027    3.0257 N.3   1040  UNL1040    -0.3437
   4158 H          12.6375    5.7933    3.8968 H     1040  UNL1040     0.1146
   4159 H          13.8048    6.1923    2.8350 H     1040  UNL1040     0.1146
   4160 H          13.5667    4.6326    3.2346 H     1040  UNL1040     0.1146
   4161 N          13.0792    5.5027    5.3144 N.3   1041  UNL1041    -0.3437
   4162 H          12.6375    5.7933    6.1855 H     1041  UNL1041     0.1146
   4163 H          13.8048    6.1923    5.1237 H     1041  UNL1041     0.1146
   4164 H          13.5667    4.6326    5.5233 H     1041  UNL1041     0.1146
   4165 N          13.0792    5.5027    7.6031 N.3   1042  UNL1042    -0.3437
   4166 H          12.6375    5.7933    8.4742 H     1042  UNL1042     0.1146
   4167 H          13.8048    6.1923    7.4124 H     1042  UNL1042     0.1146
   4168 H          13.5667    4.6326    7.8120 H     1042  UNL1042     0.1146
   4169 N          13.0792    5.5027    9.8918 N.3   1043  UNL1043    -0.3437
   4170 H          12.6375    5.7933   10.7629 H     1043  UNL1043     0.1146
   4171 H          13.8048    6.1923    9.7011 H     1043  UNL1043     0.1146
   4172 H          13.5667    4.6326   10.1007 H     1043  UNL1043     0.1146
   4173 N          13.0792    5.5027   12.1806 N.3   1044  UNL1044    -0.3437
   4174 H          12.6375    5.7933   13.0517 H     1044  UNL1044     0.1146
   4175 H          13.8048    6.1923   11.9899 H     1044  UNL1044     0.1146
   4176 H          13.5667    4.6326   12.3895 H     1044  UNL1044     0.1146
   4177 N          13.0792    5.5027   14.4693 N.3   1045  UNL1045    -0.3437
   4178 H          12.6375    5.7933   15.3404 H     1045  UNL1045     0.1146
   4179 H          13.8048    6.1923   14.2786 H     1045  UNL1045     0.1146
   4180 H          13.5667    4.6326   14.6782 H     1045  UNL1045     0.1146
   4181 N          13.0792    5.5027   16.7580 N.3   1046  UNL1046    -0.3437
   4182 H          12.6375    5.7933   17.6291 H     1046  UNL1046     0.1146
   4183 H          13.8048    6.1923   16.5673 H     1046  UNL1046     0.1146
   4184 H          13.5667    4.6326   16.9669 H     1046  UNL1046     0.1146
   4185 N          13.0792    5.3686   19.4241 N.3   1047  UNL1047    -0.3437
   4186 H          12.6375    5.8926   18.6700 H     1047  UNL1047     0.1146
   4187 H          13.8048    4.8031   18.9858 H     1047  UNL1047     0.1146
   4188 H          13.5667    6.0567   19.9962 H     1047  UNL1047     0.1146
   4189 N          13.0792    5.5027   21.3354 N.3   1048  UNL1048    -0.3437
   4190 H          12.6375    5.7933   22.2065 H     1048  UNL1048     0.1146
   4191 H          13.8048    6.1923   21.1447 H     1048  UNL1048     0.1146
   4192 H          13.5667    4.6326   21.5443 H     1048  UNL1048     0.1146
   4193 N          13.0792    5.5027   23.6241 N.3   1049  UNL1049    -0.3437
   4194 H          12.6375    5.7933   24.4952 H     1049  UNL1049     0.1146
   4195 H          13.8048    6.1923   23.4334 H     1049  UNL1049     0.1146
   4196 H          13.5667    4.6326   23.8330 H     1049  UNL1049     0.1146
   4197 N          13.0792    5.3686   26.2903 N.3   1050  UNL1050    -0.3437
   4198 H          12.6375    5.8926   25.5361 H     1050  UNL1050     0.1146
   4199 H          13.8048    4.8031   25.8519 H     1050  UNL1050     0.1146
   4200 H          13.5667    6.0567   26.8623 H     1050  UNL1050     0.1146
   4201 N          13.0792    3.7248   28.5349 N.3   1051  UNL1051    -0.3437
   4202 H          12.6375    2.8530   28.2464 H     1051  UNL1051     0.1146
   4203 H          13.8048    3.4649   29.2015 H     1051  UNL1051     0.1146
   4204 H          13.5667    4.0782   27.7128 H     1051  UNL1051     0.1146
   4205 N          13.0792    8.1686    1.0703 N.3   1052  UNL1052    -0.3437
   4206 H          12.6375    7.2968    0.7818 H     1052  UNL1052     0.1146
   4207 H          13.8048    7.9087    1.7369 H     1052  UNL1052     0.1146
   4208 H          13.5667    8.5220    0.2482 H     1052  UNL1052     0.1146
   4209 N          13.0427    7.8537    3.1055 N.3   1053  UNL1053    -0.3437
   4210 H          13.1705    7.4705    4.0410 H     1053  UNL1053     0.1146
   4211 H          12.9476    8.8612    3.2252 H     1053  UNL1053     0.1146
   4212 H          13.9273    7.7108    2.6203 H     1053  UNL1053     0.1146
   4213 N          13.0427    7.8537    5.3942 N.3   1054  UNL1054    -0.3437
   4214 H          13.1705    7.4705    6.3298 H     1054  UNL1054     0.1146
   4215 H          12.9476    8.8612    5.5140 H     1054  UNL1054     0.1146
   4216 H          13.9273    7.7108    4.9090 H     1054  UNL1054     0.1146
   4217 N          13.0792    8.1686    7.9365 N.3   1055  UNL1055    -0.3437
   4218 H          12.6375    7.2968    7.6479 H     1055  UNL1055     0.1146
   4219 H          13.8048    7.9087    8.6031 H     1055  UNL1055     0.1146
   4220 H          13.5667    8.5220    7.1144 H     1055  UNL1055     0.1146
   4221 N          13.0792    8.1686   10.2252 N.3   1056  UNL1056    -0.3437
   4222 H          12.6375    7.2968    9.9367 H     1056  UNL1056     0.1146
   4223 H          13.8048    7.9087   10.8918 H     1056  UNL1056     0.1146
   4224 H          13.5667    8.5220    9.4031 H     1056  UNL1056     0.1146
   4225 N          13.0427    7.8537   12.2604 N.3   1057  UNL1057    -0.3437
   4226 H          13.1705    7.4705   13.1959 H     1057  UNL1057     0.1146
   4227 H          12.9476    8.8612   12.3801 H     1057  UNL1057     0.1146
   4228 H          13.9273    7.7108   11.7751 H     1057  UNL1057     0.1146
   4229 N          13.0427    7.8537   14.5491 N.3   1058  UNL1058    -0.3437
   4230 H          13.1705    7.4705   15.4846 H     1058  UNL1058     0.1146
   4231 H          12.9476    8.8612   14.6688 H     1058  UNL1058     0.1146
   4232 H          13.9273    7.7108   14.0639 H     1058  UNL1058     0.1146
   4233 N          13.0792    8.1686   17.0913 N.3   1059  UNL1059    -0.3437
   4234 H          12.6375    7.2968   16.8028 H     1059  UNL1059     0.1146
   4235 H          13.8048    7.9087   17.7579 H     1059  UNL1059     0.1146
   4236 H          13.5667    8.5220   16.2692 H     1059  UNL1059     0.1146
   4237 N          13.0792    8.1686   19.3800 N.3   1060  UNL1060    -0.3437
   4238 H          12.6375    7.2968   19.0915 H     1060  UNL1060     0.1146
   4239 H          13.8048    7.9087   20.0466 H     1060  UNL1060     0.1146
   4240 H          13.5667    8.5220   18.5579 H     1060  UNL1060     0.1146
   4241 N          13.0792    7.9465   21.3354 N.3   1061  UNL1061    -0.3437
   4242 H          12.6375    8.2371   22.2065 H     1061  UNL1061     0.1146
   4243 H          13.8048    8.6361   21.1447 H     1061  UNL1061     0.1146
   4244 H          13.5667    7.0764   21.5443 H     1061  UNL1061     0.1146
   4245 N          13.0792    7.8124   24.0016 N.3   1062  UNL1062    -0.3437
   4246 H          12.6375    8.3364   23.2474 H     1062  UNL1062     0.1146
   4247 H          13.8048    7.2469   23.5632 H     1062  UNL1062     0.1146
   4248 H          13.5667    8.5005   24.5736 H     1062  UNL1062     0.1146
   4249 N          13.0792    8.1686   26.2462 N.3   1063  UNL1063    -0.3437
   4250 H          12.6375    7.2968   25.9577 H     1063  UNL1063     0.1146
   4251 H          13.8048    7.9087   26.9128 H     1063  UNL1063     0.1146
   4252 H          13.5667    8.5220   25.4241 H     1063  UNL1063     0.1146
   4253 N          13.0792    6.1686   28.5349 N.3   1064  UNL1064    -0.3437
   4254 H          12.6375    5.2968   28.2464 H     1064  UNL1064     0.1146
   4255 H          13.8048    5.9087   29.2015 H     1064  UNL1064     0.1146
   4256 H          13.5667    6.5220   27.7128 H     1064  UNL1064     0.1146
   4257 N          13.0792   10.6125    1.0703 N.3   1065  UNL1065    -0.3437
   4258 H          12.6375    9.7407    0.7818 H     1065  UNL1065     0.1146
   4259 H          13.8048   10.3525    1.7369 H     1065  UNL1065     0.1146
   4260 H          13.5667   10.9658    0.2482 H     1065  UNL1065     0.1146
   4261 N          13.0792   10.6125    3.3590 N.3   1066  UNL1066    -0.3437
   4262 H          12.6375    9.7407    3.0705 H     1066  UNL1066     0.1146
   4263 H          13.8048   10.3525    4.0256 H     1066  UNL1066     0.1146
   4264 H          13.5667   10.9658    2.5369 H     1066  UNL1066     0.1146
   4265 N          13.0792   10.3903    5.3144 N.3   1067  UNL1067    -0.3437
   4266 H          12.6375   10.6809    6.1855 H     1067  UNL1067     0.1146
   4267 H          13.8048   11.0799    5.1237 H     1067  UNL1067     0.1146
   4268 H          13.5667    9.5202    5.5233 H     1067  UNL1067     0.1146
   4269 N          13.0792   10.2562    7.9806 N.3   1068  UNL1068    -0.3437
   4270 H          12.6375   10.7802    7.2264 H     1068  UNL1068     0.1146
   4271 H          13.8048    9.6907    7.5422 H     1068  UNL1068     0.1146
   4272 H          13.5667   10.9443    8.5526 H     1068  UNL1068     0.1146
   4273 N          13.2093   10.3903   10.4017 N.3   1069  UNL1069    -0.3437
   4274 H          14.1715   10.6809   10.2343 H     1069  UNL1069     0.1146
   4275 H          12.6223   11.0799    9.9345 H     1069  UNL1069     0.1146
   4276 H          13.0849    9.5202    9.8861 H     1069  UNL1069     0.1146
   4277 N          13.0427   10.2975   12.2604 N.3   1070  UNL1070    -0.3437
   4278 H          13.1705    9.9143   13.1959 H     1070  UNL1070     0.1146
   4279 H          12.9476   11.3050   12.3801 H     1070  UNL1070     0.1146
   4280 H          13.9273   10.1547   11.7751 H     1070  UNL1070     0.1146
   4281 N          13.0427   10.2975   14.5491 N.3   1071  UNL1071    -0.3437
   4282 H          13.1705    9.9143   15.4846 H     1071  UNL1071     0.1146
   4283 H          12.9476   11.3050   14.6688 H     1071  UNL1071     0.1146
   4284 H          13.9273   10.1547   14.0639 H     1071  UNL1071     0.1146
   4285 N          13.0792   10.6125   17.0913 N.3   1072  UNL1072    -0.3437
   4286 H          12.6375    9.7407   16.8028 H     1072  UNL1072     0.1146
   4287 H          13.8048   10.3525   17.7579 H     1072  UNL1072     0.1146
   4288 H          13.5667   10.9658   16.2692 H     1072  UNL1072     0.1146
   4289 N          13.0792   10.6125   19.3800 N.3   1073  UNL1073    -0.3437
   4290 H          12.6375    9.7407   19.0915 H     1073  UNL1073     0.1146
   4291 H          13.8048   10.3525   20.0466 H     1073  UNL1073     0.1146
   4292 H          13.5667   10.9658   18.5579 H     1073  UNL1073     0.1146
   4293 N          13.0792   10.6125   21.6687 N.3   1074  UNL1074    -0.3437
   4294 H          12.6375    9.7407   21.3802 H     1074  UNL1074     0.1146
   4295 H          13.8048   10.3525   22.3353 H     1074  UNL1074     0.1146
   4296 H          13.5667   10.9658   20.8466 H     1074  UNL1074     0.1146
   4297 N          13.0792   10.6125   23.9575 N.3   1075  UNL1075    -0.3437
   4298 H          12.6375    9.7407   23.6690 H     1075  UNL1075     0.1146
   4299 H          13.8048   10.3525   24.6241 H     1075  UNL1075     0.1146
   4300 H          13.5667   10.9658   23.1354 H     1075  UNL1075     0.1146
   4301 N          13.0792   10.6125   26.2462 N.3   1076  UNL1076    -0.3437
   4302 H          12.6375    9.7407   25.9577 H     1076  UNL1076     0.1146
   4303 H          13.8048   10.3525   26.9128 H     1076  UNL1076     0.1146
   4304 H          13.5667   10.9658   25.4241 H     1076  UNL1076     0.1146
   4305 N          13.4127    8.1644   28.4816 N.3   1077  UNL1077    -0.3437
   4306 H          12.4251    8.1326   28.7305 H     1077  UNL1077     0.1146
   4307 H          13.4457    8.4177   27.4951 H     1077  UNL1077     0.1146
   4308 H          13.8046    8.9568   28.9883 H     1077  UNL1077     0.1146
   4309 N          13.0792   13.0563    1.0703 N.3   1078  UNL1078    -0.3437
   4310 H          12.6375   12.1845    0.7818 H     1078  UNL1078     0.1146
   4311 H          13.8048   12.7963    1.7369 H     1078  UNL1078     0.1146
   4312 H          13.5667   13.4096    0.2482 H     1078  UNL1078     0.1146
   4313 N          13.0792   12.8341    3.0257 N.3   1079  UNL1079    -0.3437
   4314 H          12.6375   13.1247    3.8968 H     1079  UNL1079     0.1146
   4315 H          13.8048   13.5237    2.8350 H     1079  UNL1079     0.1146
   4316 H          13.5667   11.9640    3.2346 H     1079  UNL1079     0.1146
   4317 N          13.0792   12.7000    5.6918 N.3   1080  UNL1080    -0.3437
   4318 H          12.6375   13.2240    4.9377 H     1080  UNL1080     0.1146
   4319 H          13.8048   12.1345    5.2535 H     1080  UNL1080     0.1146
   4320 H          13.5667   13.3881    6.2639 H     1080  UNL1080     0.1146
   4321 N          13.0792   13.0563    7.9365 N.3   1081  UNL1081    -0.3437
   4322 H          12.6375   12.1845    7.6479 H     1081  UNL1081     0.1146
   4323 H          13.8048   12.7963    8.6031 H     1081  UNL1081     0.1146
   4324 H          13.5667   13.4096    7.1144 H     1081  UNL1081     0.1146
   4325 N          13.0792   13.0563   10.2252 N.3   1082  UNL1082    -0.3437
   4326 H          12.6375   12.1845    9.9367 H     1082  UNL1082     0.1146
   4327 H          13.8048   12.7963   10.8918 H     1082  UNL1082     0.1146
   4328 H          13.5667   13.4096    9.4031 H     1082  UNL1082     0.1146
   4329 N          13.0792   12.8341   12.1806 N.3   1083  UNL1083    -0.3437
   4330 H          12.6375   13.1247   13.0517 H     1083  UNL1083     0.1146
   4331 H          13.8048   13.5237   11.9899 H     1083  UNL1083     0.1146
   4332 H          13.5667   11.9640   12.3895 H     1083  UNL1083     0.1146
   4333 N          13.2858   13.0496   14.4638 N.3   1084  UNL1084    -0.3437
   4334 H          12.6643   13.3724   15.2040 H     1084  UNL1084     0.1146
   4335 H          14.1919   12.8972   14.9044 H     1084  UNL1084     0.1146
   4336 H          12.9461   12.1275   14.1941 H     1084  UNL1084     0.1146
   4337 N          13.2858   13.0496   16.7525 N.3   1085  UNL1085    -0.3437
   4338 H          12.6643   13.3724   17.4928 H     1085  UNL1085     0.1146
   4339 H          14.1919   12.8972   17.1931 H     1085  UNL1085     0.1146
   4340 H          12.9461   12.1275   16.4829 H     1085  UNL1085     0.1146
   4341 N          13.2858   13.0496   19.0413 N.3   1086  UNL1086    -0.3437
   4342 H          12.6643   13.3724   19.7815 H     1086  UNL1086     0.1146
   4343 H          14.1919   12.8972   19.4818 H     1086  UNL1086     0.1146
   4344 H          12.9461   12.1275   18.7716 H     1086  UNL1086     0.1146
   4345 N          13.0427   12.7413   21.4152 N.3   1087  UNL1087    -0.3437
   4346 H          13.1705   12.3581   22.3508 H     1087  UNL1087     0.1146
   4347 H          12.9476   13.7488   21.5350 H     1087  UNL1087     0.1146
   4348 H          13.9273   12.5985   20.9300 H     1087  UNL1087     0.1146
   4349 N          13.0427   12.7413   23.7040 N.3   1088  UNL1088    -0.3437
   4350 H          13.1705   12.3581   24.6395 H     1088  UNL1088     0.1146
   4351 H          12.9476   13.7488   23.8237 H     1088  UNL1088     0.1146
   4352 H          13.9273   12.5985   23.2187 H     1088  UNL1088     0.1146
   4353 N          13.0792   13.0563   26.2462 N.3   1089  UNL1089    -0.3437
   4354 H          12.6375   12.1845   25.9577 H     1089  UNL1089     0.1146
   4355 H          13.8048   12.7963   26.9128 H     1089  UNL1089     0.1146
   4356 H          13.5667   13.4096   25.4241 H     1089  UNL1089     0.1146
   4357 N          13.4127   10.6082   28.4816 N.3   1090  UNL1090    -0.3437
   4358 H          12.4251   10.5764   28.7305 H     1090  UNL1090     0.1146
   4359 H          13.4457   10.8615   27.4951 H     1090  UNL1090     0.1146
   4360 H          13.8046   11.4006   28.9883 H     1090  UNL1090     0.1146
   4361 N          13.0792   15.5001    1.0703 N.3   1091  UNL1091    -0.3437
   4362 H          12.6375   14.6283    0.7818 H     1091  UNL1091     0.1146
   4363 H          13.8048   15.2401    1.7369 H     1091  UNL1091     0.1146
   4364 H          13.5667   15.8534    0.2482 H     1091  UNL1091     0.1146
   4365 N          13.0792   15.2779    3.0257 N.3   1092  UNL1092    -0.3437
   4366 H          12.6375   15.5685    3.8968 H     1092  UNL1092     0.1146
   4367 H          13.8048   15.9675    2.8350 H     1092  UNL1092     0.1146
   4368 H          13.5667   14.4078    3.2346 H     1092  UNL1092     0.1146
   4369 N          13.2858   15.4934    5.3090 N.3   1093  UNL1093    -0.3437
   4370 H          12.6643   15.8162    6.0492 H     1093  UNL1093     0.1146
   4371 H          14.1919   15.3410    5.7495 H     1093  UNL1093     0.1146
   4372 H          12.9461   14.5713    5.0393 H     1093  UNL1093     0.1146
   4373 N          13.0427   15.1851    7.6830 N.3   1094  UNL1094    -0.3437
   4374 H          13.1705   14.8019    8.6185 H     1094  UNL1094     0.1146
   4375 H          12.9476   16.1926    7.8027 H     1094  UNL1094     0.1146
   4376 H          13.9273   15.0423    7.1977 H     1094  UNL1094     0.1146
   4377 N          13.0792   15.5001   10.2252 N.3   1095  UNL1095    -0.3437
   4378 H          12.6375   14.6283    9.9367 H     1095  UNL1095     0.1146
   4379 H          13.8048   15.2401   10.8918 H     1095  UNL1095     0.1146
   4380 H          13.5667   15.8534    9.4031 H     1095  UNL1095     0.1146
   4381 N          13.0792   15.2779   12.1806 N.3   1096  UNL1096    -0.3437
   4382 H          12.6375   15.5685   13.0517 H     1096  UNL1096     0.1146
   4383 H          13.8048   15.9675   11.9899 H     1096  UNL1096     0.1146
   4384 H          13.5667   14.4078   12.3895 H     1096  UNL1096     0.1146
   4385 N          13.0427   15.1851   14.5491 N.3   1097  UNL1097    -0.3437
   4386 H          13.1705   14.8019   15.4846 H     1097  UNL1097     0.1146
   4387 H          12.9476   16.1926   14.6688 H     1097  UNL1097     0.1146
   4388 H          13.9273   15.0423   14.0639 H     1097  UNL1097     0.1146
   4389 N          13.0792   15.5001   17.0913 N.3   1098  UNL1098    -0.3437
   4390 H          12.6375   14.6283   16.8028 H     1098  UNL1098     0.1146
   4391 H          13.8048   15.2401   17.7579 H     1098  UNL1098     0.1146
   4392 H          13.5667   15.8534   16.2692 H     1098  UNL1098     0.1146
   4393 N          13.0792   15.2779   19.0467 N.3   1099  UNL1099    -0.3437
   4394 H          12.6375   15.5685   19.9178 H     1099  UNL1099     0.1146
   4395 H          13.8048   15.9675   18.8560 H     1099  UNL1099     0.1146
   4396 H          13.5667   14.4078   19.2556 H     1099  UNL1099     0.1146
   4397 N          13.0792   15.2779   21.3354 N.3   1100  UNL1100    -0.3437
   4398 H          12.6375   15.5685   22.2065 H     1100  UNL1100     0.1146
   4399 H          13.8048   15.9675   21.1447 H     1100  UNL1100     0.1146
   4400 H          13.5667   14.4078   21.5443 H     1100  UNL1100     0.1146
   4401 N          13.0792   15.1438   24.0016 N.3   1101  UNL1101    -0.3437
   4402 H          12.6375   15.6678   23.2474 H     1101  UNL1101     0.1146
   4403 H          13.8048   14.5784   23.5632 H     1101  UNL1101     0.1146
   4404 H          13.5667   15.8319   24.5736 H     1101  UNL1101     0.1146
   4405 N          13.0792   15.5001   26.2462 N.3   1102  UNL1102    -0.3437
   4406 H          12.6375   14.6283   25.9577 H     1102  UNL1102     0.1146
   4407 H          13.8048   15.2401   26.9128 H     1102  UNL1102     0.1146
   4408 H          13.5667   15.8534   25.4241 H     1102  UNL1102     0.1146
   4409 N          13.4127   13.0520   28.4816 N.3   1103  UNL1103    -0.3437
   4410 H          12.4251   13.0202   28.7305 H     1103  UNL1103     0.1146
   4411 H          13.4457   13.3053   27.4951 H     1103  UNL1103     0.1146
   4412 H          13.8046   13.8444   28.9883 H     1103  UNL1103     0.1146
   4413 N          13.0792   17.7217    0.7370 N.3   1104  UNL1104    -0.3437
   4414 H          12.6375   18.0123    1.6081 H     1104  UNL1104     0.1146
   4415 H          13.8048   18.4114    0.5463 H     1104  UNL1104     0.1146
   4416 H          13.5667   16.8517    0.9459 H     1104  UNL1104     0.1146
   4417 N          13.3164   17.5306    3.0541 N.3   1105  UNL1105    -0.3437
   4418 H          12.3719   17.5326    3.4367 H     1105  UNL1105     0.1146
   4419 H          13.4560   18.4538    2.6459 H     1105  UNL1105     0.1146
   4420 H          13.9438   17.4801    3.8555 H     1105  UNL1105     0.1146
   4421 N          13.2093   17.7217    5.8243 N.3   1106  UNL1106    -0.3437
   4422 H          14.1715   18.0123    5.6568 H     1106  UNL1106     0.1146
   4423 H          12.6223   18.4114    5.3571 H     1106  UNL1106     0.1146
   4424 H          13.0849   16.8517    5.3087 H     1106  UNL1106     0.1146
   4425 N          13.0792   17.7217    7.6031 N.3   1107  UNL1107    -0.3437
   4426 H          12.6375   18.0123    8.4742 H     1107  UNL1107     0.1146
   4427 H          13.8048   18.4114    7.4124 H     1107  UNL1107     0.1146
   4428 H          13.5667   16.8517    7.8120 H     1107  UNL1107     0.1146
   4429 N          13.0792   17.7217    9.8918 N.3   1108  UNL1108    -0.3437
   4430 H          12.6375   18.0123   10.7629 H     1108  UNL1108     0.1146
   4431 H          13.8048   18.4114    9.7011 H     1108  UNL1108     0.1146
   4432 H          13.5667   16.8517   10.1007 H     1108  UNL1108     0.1146
   4433 N          13.3164   17.5306   12.2090 N.3   1109  UNL1109    -0.3437
   4434 H          12.3719   17.5326   12.5915 H     1109  UNL1109     0.1146
   4435 H          13.4560   18.4538   11.8007 H     1109  UNL1109     0.1146
   4436 H          13.9438   17.4801   13.0103 H     1109  UNL1109     0.1146
   4437 N          13.2093   17.7217   14.9792 N.3   1110  UNL1110    -0.3437
   4438 H          14.1715   18.0123   14.8117 H     1110  UNL1110     0.1146
   4439 H          12.6223   18.4114   14.5120 H     1110  UNL1110     0.1146
   4440 H          13.0849   16.8517   14.4636 H     1110  UNL1110     0.1146
   4441 N          13.0792   17.7217   16.7580 N.3   1111  UNL1111    -0.3437
   4442 H          12.6375   18.0123   17.6291 H     1111  UNL1111     0.1146
   4443 H          13.8048   18.4114   16.5673 H     1111  UNL1111     0.1146
   4444 H          13.5667   16.8517   16.9669 H     1111  UNL1111     0.1146
   4445 N          13.0792   17.5876   19.4241 N.3   1112  UNL1112    -0.3437
   4446 H          12.6375   18.1116   18.6700 H     1112  UNL1112     0.1146
   4447 H          13.8048   17.0222   18.9858 H     1112  UNL1112     0.1146
   4448 H          13.5667   18.2757   19.9962 H     1112  UNL1112     0.1146
   4449 N          13.2093   17.7217   21.8453 N.3   1113  UNL1113    -0.3437
   4450 H          14.1715   18.0123   21.6778 H     1113  UNL1113     0.1146
   4451 H          12.6223   18.4114   21.3781 H     1113  UNL1113     0.1146
   4452 H          13.0849   16.8517   21.3297 H     1113  UNL1113     0.1146
   4453 N          13.0792   17.7217   23.6241 N.3   1114  UNL1114    -0.3437
   4454 H          12.6375   18.0123   24.4952 H     1114  UNL1114     0.1146
   4455 H          13.8048   18.4114   23.4334 H     1114  UNL1114     0.1146
   4456 H          13.5667   16.8517   23.8330 H     1114  UNL1114     0.1146
   4457 N          13.0792   17.7217   25.9128 N.3   1115  UNL1115    -0.3437
   4458 H          12.6375   18.0123   26.7840 H     1115  UNL1115     0.1146
   4459 H          13.8048   18.4114   25.7221 H     1115  UNL1115     0.1146
   4460 H          13.5667   16.8517   26.1217 H     1115  UNL1115     0.1146
   4461 N          13.0792   15.5876   28.5790 N.3   1116  UNL1116    -0.3437
   4462 H          12.6375   16.1116   27.8249 H     1116  UNL1116     0.1146
   4463 H          13.8048   15.0222   28.1406 H     1116  UNL1116     0.1146
   4464 H          13.5667   16.2757   29.1511 H     1116  UNL1116     0.1146
   4465 N          13.0792   20.3877    1.0703 N.3   1117  UNL1117    -0.3437
   4466 H          12.6375   19.5159    0.7818 H     1117  UNL1117     0.1146
   4467 H          13.8048   20.1278    1.7369 H     1117  UNL1117     0.1146
   4468 H          13.5667   20.7410    0.2482 H     1117  UNL1117     0.1146
   4469 N          13.0792   20.3877    3.3590 N.3   1118  UNL1118    -0.3437
   4470 H          12.6375   19.5159    3.0705 H     1118  UNL1118     0.1146
   4471 H          13.8048   20.1278    4.0256 H     1118  UNL1118     0.1146
   4472 H          13.5667   20.7410    2.5369 H     1118  UNL1118     0.1146
   4473 N          13.0792   20.3877    5.6477 N.3   1119  UNL1119    -0.3437
   4474 H          12.6375   19.5159    5.3592 H     1119  UNL1119     0.1146
   4475 H          13.8048   20.1278    6.3143 H     1119  UNL1119     0.1146
   4476 H          13.5667   20.7410    4.8256 H     1119  UNL1119     0.1146
   4477 N          13.0792   20.3877    7.9365 N.3   1120  UNL1120    -0.3437
   4478 H          12.6375   19.5159    7.6479 H     1120  UNL1120     0.1146
   4479 H          13.8048   20.1278    8.6031 H     1120  UNL1120     0.1146
   4480 H          13.5667   20.7410    7.1144 H     1120  UNL1120     0.1146
   4481 N          13.0792   20.3877   10.2252 N.3   1121  UNL1121    -0.3437
   4482 H          12.6375   19.5159    9.9367 H     1121  UNL1121     0.1146
   4483 H          13.8048   20.1278   10.8918 H     1121  UNL1121     0.1146
   4484 H          13.5667   20.7410    9.4031 H     1121  UNL1121     0.1146
   4485 N          13.0792   20.3877   12.5139 N.3   1122  UNL1122    -0.3437
   4486 H          12.6375   19.5159   12.2254 H     1122  UNL1122     0.1146
   4487 H          13.8048   20.1278   13.1805 H     1122  UNL1122     0.1146
   4488 H          13.5667   20.7410   11.6918 H     1122  UNL1122     0.1146
   4489 N          13.0792   20.3877   14.8026 N.3   1123  UNL1123    -0.3437
   4490 H          12.6375   19.5159   14.5141 H     1123  UNL1123     0.1146
   4491 H          13.8048   20.1278   15.4692 H     1123  UNL1123     0.1146
   4492 H          13.5667   20.7410   13.9805 H     1123  UNL1123     0.1146
   4493 N          13.0792   20.3877   17.0913 N.3   1124  UNL1124    -0.3437
   4494 H          12.6375   19.5159   16.8028 H     1124  UNL1124     0.1146
   4495 H          13.8048   20.1278   17.7579 H     1124  UNL1124     0.1146
   4496 H          13.5667   20.7410   16.2692 H     1124  UNL1124     0.1146
   4497 N          13.0792   20.3877   19.3800 N.3   1125  UNL1125    -0.3437
   4498 H          12.6375   19.5159   19.0915 H     1125  UNL1125     0.1146
   4499 H          13.8048   20.1278   20.0466 H     1125  UNL1125     0.1146
   4500 H          13.5667   20.7410   18.5579 H     1125  UNL1125     0.1146
   4501 N          13.0792   20.1656   21.3354 N.3   1126  UNL1126    -0.3437
   4502 H          12.6375   20.4562   22.2065 H     1126  UNL1126     0.1146
   4503 H          13.8048   20.8552   21.1447 H     1126  UNL1126     0.1146
   4504 H          13.5667   19.2955   21.5443 H     1126  UNL1126     0.1146
   4505 N          13.2858   20.3810   23.6187 N.3   1127  UNL1127    -0.3437
   4506 H          12.6643   20.7038   24.3589 H     1127  UNL1127     0.1146
   4507 H          14.1919   20.2286   24.0592 H     1127  UNL1127     0.1146
   4508 H          12.9461   19.4589   23.3490 H     1127  UNL1127     0.1146
   4509 N          13.0427   20.0727   25.9927 N.3   1128  UNL1128    -0.3437
   4510 H          13.1705   19.6895   26.9282 H     1128  UNL1128     0.1146
   4511 H          12.9476   21.0802   26.1124 H     1128  UNL1128     0.1146
   4512 H          13.9273   19.9299   25.5074 H     1128  UNL1128     0.1146
   4513 N          13.0792   18.3877   28.5349 N.3   1129  UNL1129    -0.3437
   4514 H          12.6375   17.5159   28.2464 H     1129  UNL1129     0.1146
   4515 H          13.8048   18.1278   29.2015 H     1129  UNL1129     0.1146
   4516 H          13.5667   18.7410   27.7128 H     1129  UNL1129     0.1146
   4517 N          13.0792   22.8315    1.0703 N.3   1130  UNL1130    -0.3437
   4518 H          12.6375   21.9597    0.7818 H     1130  UNL1130     0.1146
   4519 H          13.8048   22.5716    1.7369 H     1130  UNL1130     0.1146
   4520 H          13.5667   23.1848    0.2482 H     1130  UNL1130     0.1146
   4521 N          13.0792   22.8315    3.3590 N.3   1131  UNL1131    -0.3437
   4522 H          12.6375   21.9597    3.0705 H     1131  UNL1131     0.1146
   4523 H          13.8048   22.5716    4.0256 H     1131  UNL1131     0.1146
   4524 H          13.5667   23.1848    2.5369 H     1131  UNL1131     0.1146
   4525 N          13.0792   22.8315    5.6477 N.3   1132  UNL1132    -0.3437
   4526 H          12.6375   21.9597    5.3592 H     1132  UNL1132     0.1146
   4527 H          13.8048   22.5716    6.3143 H     1132  UNL1132     0.1146
   4528 H          13.5667   23.1848    4.8256 H     1132  UNL1132     0.1146
   4529 N          13.0792   22.8315    7.9365 N.3   1133  UNL1133    -0.3437
   4530 H          12.6375   21.9597    7.6479 H     1133  UNL1133     0.1146
   4531 H          13.8048   22.5716    8.6031 H     1133  UNL1133     0.1146
   4532 H          13.5667   23.1848    7.1144 H     1133  UNL1133     0.1146
   4533 N          13.0792   22.8315   10.2252 N.3   1134  UNL1134    -0.3437
   4534 H          12.6375   21.9597    9.9367 H     1134  UNL1134     0.1146
   4535 H          13.8048   22.5716   10.8918 H     1134  UNL1134     0.1146
   4536 H          13.5667   23.1848    9.4031 H     1134  UNL1134     0.1146
   4537 N          13.0792   22.6094   12.1806 N.3   1135  UNL1135    -0.3437
   4538 H          12.6375   22.9000   13.0517 H     1135  UNL1135     0.1146
   4539 H          13.8048   23.2990   11.9899 H     1135  UNL1135     0.1146
   4540 H          13.5667   21.7393   12.3895 H     1135  UNL1135     0.1146
   4541 N          13.2858   22.8248   14.4638 N.3   1136  UNL1136    -0.3437
   4542 H          12.6643   23.1476   15.2040 H     1136  UNL1136     0.1146
   4543 H          14.1919   22.6724   14.9044 H     1136  UNL1136     0.1146
   4544 H          12.9461   21.9027   14.1941 H     1136  UNL1136     0.1146
   4545 N          13.2858   22.8248   16.7525 N.3   1137  UNL1137    -0.3437
   4546 H          12.6643   23.1476   17.4928 H     1137  UNL1137     0.1146
   4547 H          14.1919   22.6724   17.1931 H     1137  UNL1137     0.1146
   4548 H          12.9461   21.9027   16.4829 H     1137  UNL1137     0.1146
   4549 N          13.0427   22.5165   19.1265 N.3   1138  UNL1138    -0.3437
   4550 H          13.1705   22.1333   20.0621 H     1138  UNL1138     0.1146
   4551 H          12.9476   23.5240   19.2462 H     1138  UNL1138     0.1146
   4552 H          13.9273   22.3737   18.6413 H     1138  UNL1138     0.1146
   4553 N          13.0427   22.5165   21.4152 N.3   1139  UNL1139    -0.3437
   4554 H          13.1705   22.1333   22.3508 H     1139  UNL1139     0.1146
   4555 H          12.9476   23.5240   21.5350 H     1139  UNL1139     0.1146
   4556 H          13.9273   22.3737   20.9300 H     1139  UNL1139     0.1146
   4557 N          13.0427   22.5165   23.7040 N.3   1140  UNL1140    -0.3437
   4558 H          13.1705   22.1333   24.6395 H     1140  UNL1140     0.1146
   4559 H          12.9476   23.5240   23.8237 H     1140  UNL1140     0.1146
   4560 H          13.9273   22.3737   23.2187 H     1140  UNL1140     0.1146
   4561 N          13.0792   22.8315   26.2462 N.3   1141  UNL1141    -0.3437
   4562 H          12.6375   21.9597   25.9577 H     1141  UNL1141     0.1146
   4563 H          13.8048   22.5716   26.9128 H     1141  UNL1141     0.1146
   4564 H          13.5667   23.1848   25.4241 H     1141  UNL1141     0.1146
   4565 N          13.0792   20.8315   28.5349 N.3   1142  UNL1142    -0.3437
   4566 H          12.6375   19.9597   28.2464 H     1142  UNL1142     0.1146
   4567 H          13.8048   20.5716   29.2015 H     1142  UNL1142     0.1146
   4568 H          13.5667   21.1848   27.7128 H     1142  UNL1142     0.1146
   4569 N          13.0792   25.2753    1.0703 N.3   1143  UNL1143    -0.3437
   4570 H          12.6375   24.4035    0.7818 H     1143  UNL1143     0.1146
   4571 H          13.8048   25.0154    1.7369 H     1143  UNL1143     0.1146
   4572 H          13.5667   25.6286    0.2482 H     1143  UNL1143     0.1146
   4573 N          13.0792   25.2753    3.3590 N.3   1144  UNL1144    -0.3437
   4574 H          12.6375   24.4035    3.0705 H     1144  UNL1144     0.1146
   4575 H          13.8048   25.0154    4.0256 H     1144  UNL1144     0.1146
   4576 H          13.5667   25.6286    2.5369 H     1144  UNL1144     0.1146
   4577 N          13.0792   25.2753    5.6477 N.3   1145  UNL1145    -0.3437
   4578 H          12.6375   24.4035    5.3592 H     1145  UNL1145     0.1146
   4579 H          13.8048   25.0154    6.3143 H     1145  UNL1145     0.1146
   4580 H          13.5667   25.6286    4.8256 H     1145  UNL1145     0.1146
   4581 N          13.0792   25.2753    7.9365 N.3   1146  UNL1146    -0.3437
   4582 H          12.6375   24.4035    7.6479 H     1146  UNL1146     0.1146
   4583 H          13.8048   25.0154    8.6031 H     1146  UNL1146     0.1146
   4584 H          13.5667   25.6286    7.1144 H     1146  UNL1146     0.1146
   4585 N          13.3047   25.1541    9.8297 N.3   1147  UNL1147    -0.3437
   4586 H          12.3949   24.7401   10.0278 H     1147  UNL1147     0.1146
   4587 H          13.3918   25.9536   10.4555 H     1147  UNL1147     0.1146
   4588 H          13.9966   24.4750   10.1437 H     1147  UNL1147     0.1146
   4589 N          13.2858   25.2686   12.1751 N.3   1148  UNL1148    -0.3437
   4590 H          12.6643   25.5914   12.9153 H     1148  UNL1148     0.1146
   4591 H          14.1919   25.1162   12.6157 H     1148  UNL1148     0.1146
   4592 H          12.9461   24.3465   11.9054 H     1148  UNL1148     0.1146
   4593 N          13.0792   25.0532   14.4693 N.3   1149  UNL1149    -0.3437
   4594 H          12.6375   25.3438   15.3404 H     1149  UNL1149     0.1146
   4595 H          13.8048   25.7428   14.2786 H     1149  UNL1149     0.1146
   4596 H          13.5667   24.1831   14.6782 H     1149  UNL1149     0.1146
   4597 N          13.0792   24.9191   17.1354 N.3   1150  UNL1150    -0.3437
   4598 H          12.6375   25.4430   16.3813 H     1150  UNL1150     0.1146
   4599 H          13.8048   24.3536   16.6971 H     1150  UNL1150     0.1146
   4600 H          13.5667   25.6071   17.7075 H     1150  UNL1150     0.1146
   4601 N          13.2093   25.0532   19.5566 N.3   1151  UNL1151    -0.3437
   4602 H          14.1715   25.3438   19.3891 H     1151  UNL1151     0.1146
   4603 H          12.6223   25.7428   19.0894 H     1151  UNL1151     0.1146
   4604 H          13.0849   24.1831   19.0410 H     1151  UNL1151     0.1146
   4605 N          13.0792   25.0532   21.3354 N.3   1152  UNL1152    -0.3437
   4606 H          12.6375   25.3438   22.2065 H     1152  UNL1152     0.1146
   4607 H          13.8048   25.7428   21.1447 H     1152  UNL1152     0.1146
   4608 H          13.5667   24.1831   21.5443 H     1152  UNL1152     0.1146
   4609 N          13.0792   25.0532   23.6241 N.3   1153  UNL1153    -0.3437
   4610 H          12.6375   25.3438   24.4952 H     1153  UNL1153     0.1146
   4611 H          13.8048   25.7428   23.4334 H     1153  UNL1153     0.1146
   4612 H          13.5667   24.1831   23.8330 H     1153  UNL1153     0.1146
   4613 N          13.0427   24.9603   25.9927 N.3   1154  UNL1154    -0.3437
   4614 H          13.1705   24.5771   26.9282 H     1154  UNL1154     0.1146
   4615 H          12.9476   25.9678   26.1124 H     1154  UNL1154     0.1146
   4616 H          13.9273   24.8175   25.5074 H     1154  UNL1154     0.1146
   4617 N          13.0792   23.2753   28.5349 N.3   1155  UNL1155    -0.3437
   4618 H          12.6375   22.4035   28.2464 H     1155  UNL1155     0.1146
   4619 H          13.8048   23.0154   29.2015 H     1155  UNL1155     0.1146
   4620 H          13.5667   23.6286   27.7128 H     1155  UNL1155     0.1146
   4621 N          13.0792   27.4970    0.7370 N.3   1156  UNL1156    -0.3437
   4622 H          12.6375   27.7876    1.6081 H     1156  UNL1156     0.1146
   4623 H          13.8048   28.1866    0.5463 H     1156  UNL1156     0.1146
   4624 H          13.5667   26.6269    0.9459 H     1156  UNL1156     0.1146
   4625 N          13.0792   27.4970    3.0257 N.3   1157  UNL1157    -0.3437
   4626 H          12.6375   27.7876    3.8968 H     1157  UNL1157     0.1146
   4627 H          13.8048   28.1866    2.8350 H     1157  UNL1157     0.1146
   4628 H          13.5667   26.6269    3.2346 H     1157  UNL1157     0.1146
   4629 N          13.0792   27.4970    5.3144 N.3   1158  UNL1158    -0.3437
   4630 H          12.6375   27.7876    6.1855 H     1158  UNL1158     0.1146
   4631 H          13.8048   28.1866    5.1237 H     1158  UNL1158     0.1146
   4632 H          13.5667   26.6269    5.5233 H     1158  UNL1158     0.1146
   4633 N          13.0792   27.4970    7.6031 N.3   1159  UNL1159    -0.3437
   4634 H          12.6375   27.7876    8.4742 H     1159  UNL1159     0.1146
   4635 H          13.8048   28.1866    7.4124 H     1159  UNL1159     0.1146
   4636 H          13.5667   26.6269    7.8120 H     1159  UNL1159     0.1146
   4637 N          13.2858   27.7124    9.8864 N.3   1160  UNL1160    -0.3437
   4638 H          12.6643   28.0352   10.6266 H     1160  UNL1160     0.1146
   4639 H          14.1919   27.5600   10.3270 H     1160  UNL1160     0.1146
   4640 H          12.9461   26.7903    9.6167 H     1160  UNL1160     0.1146
   4641 N          13.0792   27.4970   12.1806 N.3   1161  UNL1161    -0.3437
   4642 H          12.6375   27.7876   13.0517 H     1161  UNL1161     0.1146
   4643 H          13.8048   28.1866   11.9899 H     1161  UNL1161     0.1146
   4644 H          13.5667   26.6269   12.3895 H     1161  UNL1161     0.1146
   4645 N          13.0792   27.3629   14.8467 N.3   1162  UNL1162    -0.3437
   4646 H          12.6375   27.8868   14.0926 H     1162  UNL1162     0.1146
   4647 H          13.8048   26.7974   14.4084 H     1162  UNL1162     0.1146
   4648 H          13.5667   28.0509   15.4188 H     1162  UNL1162     0.1146
   4649 N          13.0792   27.4970   16.7580 N.3   1163  UNL1163    -0.3437
   4650 H          12.6375   27.7876   17.6291 H     1163  UNL1163     0.1146
   4651 H          13.8048   28.1866   16.5673 H     1163  UNL1163     0.1146
   4652 H          13.5667   26.6269   16.9669 H     1163  UNL1163     0.1146
   4653 N          13.2858   27.7124   19.0413 N.3   1164  UNL1164    -0.3437
   4654 H          12.6643   28.0352   19.7815 H     1164  UNL1164     0.1146
   4655 H          14.1919   27.5600   19.4818 H     1164  UNL1164     0.1146
   4656 H          12.9461   26.7903   18.7716 H     1164  UNL1164     0.1146
   4657 N          13.0792   27.4970   21.3354 N.3   1165  UNL1165    -0.3437
   4658 H          12.6375   27.7876   22.2065 H     1165  UNL1165     0.1146
   4659 H          13.8048   28.1866   21.1447 H     1165  UNL1165     0.1146
   4660 H          13.5667   26.6269   21.5443 H     1165  UNL1165     0.1146
   4661 N          13.0792   27.3629   24.0016 N.3   1166  UNL1166    -0.3437
   4662 H          12.6375   27.8868   23.2474 H     1166  UNL1166     0.1146
   4663 H          13.8048   26.7974   23.5632 H     1166  UNL1166     0.1146
   4664 H          13.5667   28.0509   24.5736 H     1166  UNL1166     0.1146
   4665 N          13.0792   27.4970   25.9128 N.3   1167  UNL1167    -0.3437
   4666 H          12.6375   27.7876   26.7840 H     1167  UNL1167     0.1146
   4667 H          13.8048   28.1866   25.7221 H     1167  UNL1167     0.1146
   4668 H          13.5667   26.6269   26.1217 H     1167  UNL1167     0.1146
   4669 N          13.0792   25.7191   28.5349 N.3   1168  UNL1168    -0.3437
   4670 H          12.6375   24.8473   28.2464 H     1168  UNL1168     0.1146
   4671 H          13.8048   25.4592   29.2015 H     1168  UNL1168     0.1146
   4672 H          13.5667   26.0724   27.7128 H     1168  UNL1168     0.1146
   4673 N          13.0792   30.9408    0.7370 N.3   1169  UNL1169    -0.3437
   4674 H          12.6375   31.2314    1.6081 H     1169  UNL1169     0.1146
   4675 H          13.8048   31.6304    0.5463 H     1169  UNL1169     0.1146
   4676 H          13.5667   30.0707    0.9459 H     1169  UNL1169     0.1146
   4677 N          13.0792   30.9408    3.0257 N.3   1170  UNL1170    -0.3437
   4678 H          12.6375   31.2314    3.8968 H     1170  UNL1170     0.1146
   4679 H          13.8048   31.6304    2.8350 H     1170  UNL1170     0.1146
   4680 H          13.5667   30.0707    3.2346 H     1170  UNL1170     0.1146
   4681 N          13.0792   30.9408    5.3144 N.3   1171  UNL1171    -0.3437
   4682 H          12.6375   31.2314    6.1855 H     1171  UNL1171     0.1146
   4683 H          13.8048   31.6304    5.1237 H     1171  UNL1171     0.1146
   4684 H          13.5667   30.0707    5.5233 H     1171  UNL1171     0.1146
   4685 N          13.2690   30.7107    7.6806 N.3   1172  UNL1172    -0.3437
   4686 H          12.3345   31.0854    7.8375 H     1172  UNL1172     0.1146
   4687 H          13.7829   31.4367    7.1833 H     1172  UNL1172     0.1146
   4688 H          13.7017   30.6405    8.6005 H     1172  UNL1172     0.1146
   4689 N          13.0792   30.9408    9.8918 N.3   1173  UNL1173    -0.3437
   4690 H          12.6375   31.2314   10.7629 H     1173  UNL1173     0.1146
   4691 H          13.8048   31.6304    9.7011 H     1173  UNL1173     0.1146
   4692 H          13.5667   30.0707   10.1007 H     1173  UNL1173     0.1146
   4693 N          13.0792   30.9408   12.1806 N.3   1174  UNL1174    -0.3437
   4694 H          12.6375   31.2314   13.0517 H     1174  UNL1174     0.1146
   4695 H          13.8048   31.6304   11.9899 H     1174  UNL1174     0.1146
   4696 H          13.5667   30.0707   12.3895 H     1174  UNL1174     0.1146
   4697 N          13.0792   29.9408   14.4693 N.3   1175  UNL1175    -0.3437
   4698 H          12.6375   30.2314   15.3404 H     1175  UNL1175     0.1146
   4699 H          13.8048   30.6304   14.2786 H     1175  UNL1175     0.1146
   4700 H          13.5667   29.0707   14.6782 H     1175  UNL1175     0.1146
   4701 N          13.0792   30.9408   16.7580 N.3   1176  UNL1176    -0.3437
   4702 H          12.6375   31.2314   17.6291 H     1176  UNL1176     0.1146
   4703 H          13.8048   31.6304   16.5673 H     1176  UNL1176     0.1146
   4704 H          13.5667   30.0707   16.9669 H     1176  UNL1176     0.1146
   4705 N          13.0792   30.9408   19.0467 N.3   1177  UNL1177    -0.3437
   4706 H          12.6375   31.2314   19.9178 H     1177  UNL1177     0.1146
   4707 H          13.8048   31.6304   18.8560 H     1177  UNL1177     0.1146
   4708 H          13.5667   30.0707   19.2556 H     1177  UNL1177     0.1146
   4709 N          13.0792   30.9408   21.3354 N.3   1178  UNL1178    -0.3437
   4710 H          12.6375   31.2314   22.2065 H     1178  UNL1178     0.1146
   4711 H          13.8048   31.6304   21.1447 H     1178  UNL1178     0.1146
   4712 H          13.5667   30.0707   21.5443 H     1178  UNL1178     0.1146
   4713 N          13.0792   29.9408   23.6241 N.3   1179  UNL1179    -0.3437
   4714 H          12.6375   30.2314   24.4952 H     1179  UNL1179     0.1146
   4715 H          13.8048   30.6304   23.4334 H     1179  UNL1179     0.1146
   4716 H          13.5667   29.0707   23.8330 H     1179  UNL1179     0.1146
   4717 N          13.0792   30.9408   25.9128 N.3   1180  UNL1180    -0.3437
   4718 H          12.6375   31.2314   26.7840 H     1180  UNL1180     0.1146
   4719 H          13.8048   31.6304   25.7221 H     1180  UNL1180     0.1146
   4720 H          13.5667   30.0707   26.1217 H     1180  UNL1180     0.1146
   4721 N          13.0792   29.9408   28.2016 N.3   1181  UNL1181    -0.3437
   4722 H          12.6375   30.2314   29.0727 H     1181  UNL1181     0.1146
   4723 H          13.8048   30.6304   28.0109 H     1181  UNL1181     0.1146
   4724 H          13.5667   29.0707   28.4105 H     1181  UNL1181     0.1146
   4725 N          15.2518    0.4424    1.2840 N.3   1182  UNL1182    -0.3437
   4726 H          15.3102    1.1007    2.0596 H     1182  UNL1182     0.1146
   4727 H          15.1269    1.0071    0.4450 H     1182  UNL1182     0.1146
   4728 H          16.1758    0.0204    1.2035 H     1182  UNL1182     0.1146
   4729 N          15.2733    0.8372    3.6477 N.3   1183  UNL1183    -0.3437
   4730 H          14.8316   -0.0346    3.3592 H     1183  UNL1183     0.1146
   4731 H          15.9989    0.5773    4.3143 H     1183  UNL1183     0.1146
   4732 H          15.7608    1.1906    2.8256 H     1183  UNL1183     0.1146
   4733 N          15.2179    0.8013    5.8492 N.3   1184  UNL1184    -0.3437
   4734 H          15.6340    0.5827    6.7534 H     1184  UNL1184     0.1146
   4735 H          15.9418    1.2799    5.3152 H     1184  UNL1184     0.1146
   4736 H          15.0709   -0.0933    5.3840 H     1184  UNL1184     0.1146
   4737 N          15.2518    0.4424    8.1501 N.3   1185  UNL1185    -0.3437
   4738 H          15.3102    1.1007    8.9257 H     1185  UNL1185     0.1146
   4739 H          15.1269    1.0071    7.3112 H     1185  UNL1185     0.1146
   4740 H          16.1758    0.0204    8.0696 H     1185  UNL1185     0.1146
   4741 N          15.2733    0.8372   10.5139 N.3   1186  UNL1186    -0.3437
   4742 H          14.8316   -0.0346   10.2254 H     1186  UNL1186     0.1146
   4743 H          15.9989    0.5773   11.1805 H     1186  UNL1186     0.1146
   4744 H          15.7608    1.1906    9.6918 H     1186  UNL1186     0.1146
   4745 N          15.2733    0.4810   14.8467 N.3   1187  UNL1187    -0.3437
   4746 H          14.8316    1.0050   14.0926 H     1187  UNL1187     0.1146
   4747 H          15.9989   -0.0845   14.4084 H     1187  UNL1187     0.1146
   4748 H          15.7608    1.1691   15.4188 H     1187  UNL1187     0.1146
   4749 N          15.4035    0.6151   17.2679 N.3   1188  UNL1188    -0.3437
   4750 H          16.3657    0.9057   17.1004 H     1188  UNL1188     0.1146
   4751 H          14.8164    1.3047   16.8007 H     1188  UNL1188     0.1146
   4752 H          15.2791   -0.2550   16.7523 H     1188  UNL1188     0.1146
   4753 N          15.1895    0.6321   19.1654 N.3   1189  UNL1189    -0.3437
   4754 H          15.3272    0.0386   19.9822 H     1189  UNL1189     0.1146
   4755 H          15.4686    1.5701   19.4496 H     1189  UNL1189     0.1146
   4756 H          15.8793    0.3298   18.4790 H     1189  UNL1189     0.1146
   4757 N          15.2733    0.6151   21.3354 N.3   1190  UNL1190    -0.3437
   4758 H          14.8316    0.9057   22.2065 H     1190  UNL1190     0.1146
   4759 H          15.9989    1.3047   21.1447 H     1190  UNL1190     0.1146
   4760 H          15.7608   -0.2550   21.5443 H     1190  UNL1190     0.1146
   4761 N          15.2733    0.4810   24.0016 N.3   1191  UNL1191    -0.3437
   4762 H          14.8316    1.0050   23.2474 H     1191  UNL1191     0.1146
   4763 H          15.9989   -0.0845   23.5632 H     1191  UNL1191     0.1146
   4764 H          15.7608    1.1691   24.5736 H     1191  UNL1191     0.1146
   4765 N          15.4035    0.6151   26.4227 N.3   1192  UNL1192    -0.3437
   4766 H          16.3657    0.9057   26.2553 H     1192  UNL1192     0.1146
   4767 H          14.8164    1.3047   25.9555 H     1192  UNL1192     0.1146
   4768 H          15.2791   -0.2550   25.9071 H     1192  UNL1192     0.1146
   4769 N          15.1895    0.6321   29.3203 N.3   1193  UNL1193    -0.3437
   4770 H          15.3272    0.0386   30.1370 H     1193  UNL1193     0.1146
   4771 H          15.4686    1.5701   29.6044 H     1193  UNL1193     0.1146
   4772 H          15.8793    0.3298   28.6338 H     1193  UNL1193     0.1146
   4773 N          15.2733    3.2810    1.0703 N.3   1194  UNL1194    -0.3437
   4774 H          14.8316    2.4092    0.7818 H     1194  UNL1194     0.1146
   4775 H          15.9989    3.0211    1.7369 H     1194  UNL1194     0.1146
   4776 H          15.7608    3.6344    0.2482 H     1194  UNL1194     0.1146
   4777 N          15.2733    3.0589    3.0257 N.3   1195  UNL1195    -0.3437
   4778 H          14.8316    3.3495    3.8968 H     1195  UNL1195     0.1146
   4779 H          15.9989    3.7485    2.8350 H     1195  UNL1195     0.1146
   4780 H          15.7608    2.1888    3.2346 H     1195  UNL1195     0.1146
   4781 N          15.4799    3.2743    5.3090 N.3   1196  UNL1196    -0.3437
   4782 H          14.8584    3.5972    6.0492 H     1196  UNL1196     0.1146
   4783 H          16.3861    3.1220    5.7495 H     1196  UNL1196     0.1146
   4784 H          15.1402    2.3523    5.0393 H     1196  UNL1196     0.1146
   4785 N          15.2369    2.9661    7.6830 N.3   1197  UNL1197    -0.3437
   4786 H          15.3646    2.5829    8.6185 H     1197  UNL1197     0.1146
   4787 H          15.1418    3.9736    7.8027 H     1197  UNL1197     0.1146
   4788 H          16.1214    2.8232    7.1977 H     1197  UNL1197     0.1146
   4789 N          15.2733    2.9248   10.2693 N.3   1198  UNL1198    -0.3437
   4790 H          14.8316    3.4488    9.5151 H     1198  UNL1198     0.1146
   4791 H          15.9989    2.3593    9.8309 H     1198  UNL1198     0.1146
   4792 H          15.7608    3.6129   10.8413 H     1198  UNL1198     0.1146
   4793 N          15.2733    3.2810   12.5139 N.3   1199  UNL1199    -0.3437
   4794 H          14.8316    2.4092   12.2254 H     1199  UNL1199     0.1146
   4795 H          15.9989    3.0211   13.1805 H     1199  UNL1199     0.1146
   4796 H          15.7608    3.6344   11.6918 H     1199  UNL1199     0.1146
   4797 N          15.2733    3.2810   14.8026 N.3   1200  UNL1200    -0.3437
   4798 H          14.8316    2.4092   14.5141 H     1200  UNL1200     0.1146
   4799 H          15.9989    3.0211   15.4692 H     1200  UNL1200     0.1146
   4800 H          15.7608    3.6344   13.9805 H     1200  UNL1200     0.1146
   4801 N          15.2733    3.2810   17.0913 N.3   1201  UNL1201    -0.3437
   4802 H          14.8316    2.4092   16.8028 H     1201  UNL1201     0.1146
   4803 H          15.9989    3.0211   17.7579 H     1201  UNL1201     0.1146
   4804 H          15.7608    3.6344   16.2692 H     1201  UNL1201     0.1146
   4805 N          15.4989    3.1598   18.9846 N.3   1202  UNL1202    -0.3437
   4806 H          14.5890    2.7459   19.1826 H     1202  UNL1202     0.1146
   4807 H          15.5860    3.9593   19.6104 H     1202  UNL1202     0.1146
   4808 H          16.1907    2.4808   19.2986 H     1202  UNL1202     0.1146
   4809 N          15.4799    3.2743   21.3300 N.3   1203  UNL1203    -0.3437
   4810 H          14.8584    3.5972   22.0702 H     1203  UNL1203     0.1146
   4811 H          16.3861    3.1220   21.7705 H     1203  UNL1203     0.1146
   4812 H          15.1402    2.3523   21.0603 H     1203  UNL1203     0.1146
   4813 N          15.2733    3.0589   23.6241 N.3   1204  UNL1204    -0.3437
   4814 H          14.8316    3.3495   24.4952 H     1204  UNL1204     0.1146
   4815 H          15.9989    3.7485   23.4334 H     1204  UNL1204     0.1146
   4816 H          15.7608    2.1888   23.8330 H     1204  UNL1204     0.1146
   4817 N          15.2733    2.9248   26.2903 N.3   1205  UNL1205    -0.3437
   4818 H          14.8316    3.4488   25.5361 H     1205  UNL1205     0.1146
   4819 H          15.9989    2.3593   25.8519 H     1205  UNL1205     0.1146
   4820 H          15.7608    3.6129   26.8623 H     1205  UNL1205     0.1146
   4821 N          15.1895    3.0759   29.3203 N.3   1206  UNL1206    -0.3437
   4822 H          15.3272    2.4824   30.1370 H     1206  UNL1206     0.1146
   4823 H          15.4686    4.0139   29.6044 H     1206  UNL1206     0.1146
   4824 H          15.8793    2.7736   28.6338 H     1206  UNL1206     0.1146
   4825 N          15.2733    5.5027    0.7370 N.3   1207  UNL1207    -0.3437
   4826 H          14.8316    5.7933    1.6081 H     1207  UNL1207     0.1146
   4827 H          15.9989    6.1923    0.5463 H     1207  UNL1207     0.1146
   4828 H          15.7608    4.6326    0.9459 H     1207  UNL1207     0.1146
   4829 N          15.2733    5.3686    3.4031 N.3   1208  UNL1208    -0.3437
   4830 H          14.8316    5.8926    2.6490 H     1208  UNL1208     0.1146
   4831 H          15.9989    4.8031    2.9648 H     1208  UNL1208     0.1146
   4832 H          15.7608    6.0567    3.9752 H     1208  UNL1208     0.1146
   4833 N          15.2733    5.5027    5.3144 N.3   1209  UNL1209    -0.3437
   4834 H          14.8316    5.7933    6.1855 H     1209  UNL1209     0.1146
   4835 H          15.9989    6.1923    5.1237 H     1209  UNL1209     0.1146
   4836 H          15.7608    4.6326    5.5233 H     1209  UNL1209     0.1146
   4837 N          15.2733    5.5027    7.6031 N.3   1210  UNL1210    -0.3437
   4838 H          14.8316    5.7933    8.4742 H     1210  UNL1210     0.1146
   4839 H          15.9989    6.1923    7.4124 H     1210  UNL1210     0.1146
   4840 H          15.7608    4.6326    7.8120 H     1210  UNL1210     0.1146
   4841 N          15.2733    5.5027    9.8918 N.3   1211  UNL1211    -0.3437
   4842 H          14.8316    5.7933   10.7629 H     1211  UNL1211     0.1146
   4843 H          15.9989    6.1923    9.7011 H     1211  UNL1211     0.1146
   4844 H          15.7608    4.6326   10.1007 H     1211  UNL1211     0.1146
   4845 N          15.2733    5.5027   12.1806 N.3   1212  UNL1212    -0.3437
   4846 H          14.8316    5.7933   13.0517 H     1212  UNL1212     0.1146
   4847 H          15.9989    6.1923   11.9899 H     1212  UNL1212     0.1146
   4848 H          15.7608    4.6326   12.3895 H     1212  UNL1212     0.1146
   4849 N          15.2733    5.5027   14.4693 N.3   1213  UNL1213    -0.3437
   4850 H          14.8316    5.7933   15.3404 H     1213  UNL1213     0.1146
   4851 H          15.9989    6.1923   14.2786 H     1213  UNL1213     0.1146
   4852 H          15.7608    4.6326   14.6782 H     1213  UNL1213     0.1146
   4853 N          15.2733    5.5027   16.7580 N.3   1214  UNL1214    -0.3437
   4854 H          14.8316    5.7933   17.6291 H     1214  UNL1214     0.1146
   4855 H          15.9989    6.1923   16.5673 H     1214  UNL1214     0.1146
   4856 H          15.7608    4.6326   16.9669 H     1214  UNL1214     0.1146
   4857 N          15.4799    5.7181   19.0413 N.3   1215  UNL1215    -0.3437
   4858 H          14.8584    6.0410   19.7815 H     1215  UNL1215     0.1146
   4859 H          16.3861    5.5658   19.4818 H     1215  UNL1215     0.1146
   4860 H          15.1402    4.7961   18.7716 H     1215  UNL1215     0.1146
   4861 N          15.2733    5.5027   21.3354 N.3   1216  UNL1216    -0.3437
   4862 H          14.8316    5.7933   22.2065 H     1216  UNL1216     0.1146
   4863 H          15.9989    6.1923   21.1447 H     1216  UNL1216     0.1146
   4864 H          15.7608    4.6326   21.5443 H     1216  UNL1216     0.1146
   4865 N          15.2733    5.3686   24.0016 N.3   1217  UNL1217    -0.3437
   4866 H          14.8316    5.8926   23.2474 H     1217  UNL1217     0.1146
   4867 H          15.9989    4.8031   23.5632 H     1217  UNL1217     0.1146
   4868 H          15.7608    6.0567   24.5736 H     1217  UNL1217     0.1146
   4869 N          15.2733    5.7248   26.2462 N.3   1218  UNL1218    -0.3437
   4870 H          14.8316    4.8530   25.9577 H     1218  UNL1218     0.1146
   4871 H          15.9989    5.4649   26.9128 H     1218  UNL1218     0.1146
   4872 H          15.7608    6.0782   25.4241 H     1218  UNL1218     0.1146
   4873 N          15.2733    5.5027   28.2016 N.3   1219  UNL1219    -0.3437
   4874 H          14.8316    5.7933   29.0727 H     1219  UNL1219     0.1146
   4875 H          15.9989    6.1923   28.0109 H     1219  UNL1219     0.1146
   4876 H          15.7608    4.6326   28.4105 H     1219  UNL1219     0.1146
   4877 N          15.2733    8.1686    1.0703 N.3   1220  UNL1220    -0.3437
   4878 H          14.8316    7.2968    0.7818 H     1220  UNL1220     0.1146
   4879 H          15.9989    7.9087    1.7369 H     1220  UNL1220     0.1146
   4880 H          15.7608    8.5220    0.2482 H     1220  UNL1220     0.1146
   4881 N          15.2733    7.9465    3.0257 N.3   1221  UNL1221    -0.3437
   4882 H          14.8316    8.2371    3.8968 H     1221  UNL1221     0.1146
   4883 H          15.9989    8.6361    2.8350 H     1221  UNL1221     0.1146
   4884 H          15.7608    7.0764    3.2346 H     1221  UNL1221     0.1146
   4885 N          15.2733    7.8124    5.6918 N.3   1222  UNL1222    -0.3437
   4886 H          14.8316    8.3364    4.9377 H     1222  UNL1222     0.1146
   4887 H          15.9989    7.2469    5.2535 H     1222  UNL1222     0.1146
   4888 H          15.7608    8.5005    6.2639 H     1222  UNL1222     0.1146
   4889 N          15.2733    8.1686    7.9365 N.3   1223  UNL1223    -0.3437
   4890 H          14.8316    7.2968    7.6479 H     1223  UNL1223     0.1146
   4891 H          15.9989    7.9087    8.6031 H     1223  UNL1223     0.1146
   4892 H          15.7608    8.5220    7.1144 H     1223  UNL1223     0.1146
   4893 N          15.2733    8.1686   10.2252 N.3   1224  UNL1224    -0.3437
   4894 H          14.8316    7.2968    9.9367 H     1224  UNL1224     0.1146
   4895 H          15.9989    7.9087   10.8918 H     1224  UNL1224     0.1146
   4896 H          15.7608    8.5220    9.4031 H     1224  UNL1224     0.1146
   4897 N          15.2733    7.9465   12.1806 N.3   1225  UNL1225    -0.3437
   4898 H          14.8316    8.2371   13.0517 H     1225  UNL1225     0.1146
   4899 H          15.9989    8.6361   11.9899 H     1225  UNL1225     0.1146
   4900 H          15.7608    7.0764   12.3895 H     1225  UNL1225     0.1146
   4901 N          15.2733    7.8124   14.8467 N.3   1226  UNL1226    -0.3437
   4902 H          14.8316    8.3364   14.0926 H     1226  UNL1226     0.1146
   4903 H          15.9989    7.2469   14.4084 H     1226  UNL1226     0.1146
   4904 H          15.7608    8.5005   15.4188 H     1226  UNL1226     0.1146
   4905 N          15.2733    8.1686   17.0913 N.3   1227  UNL1227    -0.3437
   4906 H          14.8316    7.2968   16.8028 H     1227  UNL1227     0.1146
   4907 H          15.9989    7.9087   17.7579 H     1227  UNL1227     0.1146
   4908 H          15.7608    8.5220   16.2692 H     1227  UNL1227     0.1146
   4909 N          15.2733    8.1686   19.3800 N.3   1228  UNL1228    -0.3437
   4910 H          14.8316    7.2968   19.0915 H     1228  UNL1228     0.1146
   4911 H          15.9989    7.9087   20.0466 H     1228  UNL1228     0.1146
   4912 H          15.7608    8.5220   18.5579 H     1228  UNL1228     0.1146
   4913 N          15.2733    8.1686   21.6687 N.3   1229  UNL1229    -0.3437
   4914 H          14.8316    7.2968   21.3802 H     1229  UNL1229     0.1146
   4915 H          15.9989    7.9087   22.3353 H     1229  UNL1229     0.1146
   4916 H          15.7608    8.5220   20.8466 H     1229  UNL1229     0.1146
   4917 N          15.2733    8.1686   23.9575 N.3   1230  UNL1230    -0.3437
   4918 H          14.8316    7.2968   23.6690 H     1230  UNL1230     0.1146
   4919 H          15.9989    7.9087   24.6241 H     1230  UNL1230     0.1146
   4920 H          15.7608    8.5220   23.1354 H     1230  UNL1230     0.1146
   4921 N          15.2733    8.1686   26.2462 N.3   1231  UNL1231    -0.3437
   4922 H          14.8316    7.2968   25.9577 H     1231  UNL1231     0.1146
   4923 H          15.9989    7.9087   26.9128 H     1231  UNL1231     0.1146
   4924 H          15.7608    8.5220   25.4241 H     1231  UNL1231     0.1146
   4925 N          15.1895    7.9635   29.3203 N.3   1232  UNL1232    -0.3437
   4926 H          15.3272    7.3700   30.1370 H     1232  UNL1232     0.1146
   4927 H          15.4686    8.9015   29.6044 H     1232  UNL1232     0.1146
   4928 H          15.8793    7.6612   28.6338 H     1232  UNL1232     0.1146
   4929 N          15.2733   10.6125    1.0703 N.3   1233  UNL1233    -0.3437
   4930 H          14.8316    9.7407    0.7818 H     1233  UNL1233     0.1146
   4931 H          15.9989   10.3525    1.7369 H     1233  UNL1233     0.1146
   4932 H          15.7608   10.9658    0.2482 H     1233  UNL1233     0.1146
   4933 N          15.2369   10.2975    3.1055 N.3   1234  UNL1234    -0.3437
   4934 H          15.3646    9.9143    4.0410 H     1234  UNL1234     0.1146
   4935 H          15.1418   11.3050    3.2252 H     1234  UNL1234     0.1146
   4936 H          16.1214   10.1547    2.6203 H     1234  UNL1234     0.1146
   4937 N          15.2733   10.2562    5.6918 N.3   1235  UNL1235    -0.3437
   4938 H          14.8316   10.7802    4.9377 H     1235  UNL1235     0.1146
   4939 H          15.9989    9.6907    5.2535 H     1235  UNL1235     0.1146
   4940 H          15.7608   10.9443    6.2639 H     1235  UNL1235     0.1146
   4941 N          15.2733   10.6125    7.9365 N.3   1236  UNL1236    -0.3437
   4942 H          14.8316    9.7407    7.6479 H     1236  UNL1236     0.1146
   4943 H          15.9989   10.3525    8.6031 H     1236  UNL1236     0.1146
   4944 H          15.7608   10.9658    7.1144 H     1236  UNL1236     0.1146
   4945 N          15.2733   10.6125   10.2252 N.3   1237  UNL1237    -0.3437
   4946 H          14.8316    9.7407    9.9367 H     1237  UNL1237     0.1146
   4947 H          15.9989   10.3525   10.8918 H     1237  UNL1237     0.1146
   4948 H          15.7608   10.9658    9.4031 H     1237  UNL1237     0.1146
   4949 N          15.2733   10.3903   12.1806 N.3   1238  UNL1238    -0.3437
   4950 H          14.8316   10.6809   13.0517 H     1238  UNL1238     0.1146
   4951 H          15.9989   11.0799   11.9899 H     1238  UNL1238     0.1146
   4952 H          15.7608    9.5202   12.3895 H     1238  UNL1238     0.1146
   4953 N          15.2733   10.2562   14.8467 N.3   1239  UNL1239    -0.3437
   4954 H          14.8316   10.7802   14.0926 H     1239  UNL1239     0.1146
   4955 H          15.9989    9.6907   14.4084 H     1239  UNL1239     0.1146
   4956 H          15.7608   10.9443   15.4188 H     1239  UNL1239     0.1146
   4957 N          15.2733   10.6125   17.0913 N.3   1240  UNL1240    -0.3437
   4958 H          14.8316    9.7407   16.8028 H     1240  UNL1240     0.1146
   4959 H          15.9989   10.3525   17.7579 H     1240  UNL1240     0.1146
   4960 H          15.7608   10.9658   16.2692 H     1240  UNL1240     0.1146
   4961 N          15.2733   10.6125   19.3800 N.3   1241  UNL1241    -0.3437
   4962 H          14.8316    9.7407   19.0915 H     1241  UNL1241     0.1146
   4963 H          15.9989   10.3525   20.0466 H     1241  UNL1241     0.1146
   4964 H          15.7608   10.9658   18.5579 H     1241  UNL1241     0.1146
   4965 N          15.2369   10.2975   21.4152 N.3   1242  UNL1242    -0.3437
   4966 H          15.3646    9.9143   22.3508 H     1242  UNL1242     0.1146
   4967 H          15.1418   11.3050   21.5350 H     1242  UNL1242     0.1146
   4968 H          16.1214   10.1547   20.9300 H     1242  UNL1242     0.1146
   4969 N          15.2733   10.6125   23.9575 N.3   1243  UNL1243    -0.3437
   4970 H          14.8316    9.7407   23.6690 H     1243  UNL1243     0.1146
   4971 H          15.9989   10.3525   24.6241 H     1243  UNL1243     0.1146
   4972 H          15.7608   10.9658   23.1354 H     1243  UNL1243     0.1146
   4973 N          15.2733   10.6125   26.2462 N.3   1244  UNL1244    -0.3437
   4974 H          14.8316    9.7407   25.9577 H     1244  UNL1244     0.1146
   4975 H          15.9989   10.3525   26.9128 H     1244  UNL1244     0.1146
   4976 H          15.7608   10.9658   25.4241 H     1244  UNL1244     0.1146
   4977 N          15.1895   10.4074   29.3203 N.3   1245  UNL1245    -0.3437
   4978 H          15.3272    9.8138   30.1370 H     1245  UNL1245     0.1146
   4979 H          15.4686   11.3453   29.6044 H     1245  UNL1245     0.1146
   4980 H          15.8793   10.1050   28.6338 H     1245  UNL1245     0.1146
   4981 N          15.2733   13.0563    1.0703 N.3   1246  UNL1246    -0.3437
   4982 H          14.8316   12.1845    0.7818 H     1246  UNL1246     0.1146
   4983 H          15.9989   12.7963    1.7369 H     1246  UNL1246     0.1146
   4984 H          15.7608   13.4096    0.2482 H     1246  UNL1246     0.1146
   4985 N          15.2733   13.0563    3.3590 N.3   1247  UNL1247    -0.3437
   4986 H          14.8316   12.1845    3.0705 H     1247  UNL1247     0.1146
   4987 H          15.9989   12.7963    4.0256 H     1247  UNL1247     0.1146
   4988 H          15.7608   13.4096    2.5369 H     1247  UNL1247     0.1146
   4989 N          15.2733   13.0563    5.6477 N.3   1248  UNL1248    -0.3437
   4990 H          14.8316   12.1845    5.3592 H     1248  UNL1248     0.1146
   4991 H          15.9989   12.7963    6.3143 H     1248  UNL1248     0.1146
   4992 H          15.7608   13.4096    4.8256 H     1248  UNL1248     0.1146
   4993 N          15.2733   13.0563    7.9365 N.3   1249  UNL1249    -0.3437
   4994 H          14.8316   12.1845    7.6479 H     1249  UNL1249     0.1146
   4995 H          15.9989   12.7963    8.6031 H     1249  UNL1249     0.1146
   4996 H          15.7608   13.4096    7.1144 H     1249  UNL1249     0.1146
   4997 N          15.2733   13.0563   10.2252 N.3   1250  UNL1250    -0.3437
   4998 H          14.8316   12.1845    9.9367 H     1250  UNL1250     0.1146
   4999 H          15.9989   12.7963   10.8918 H     1250  UNL1250     0.1146
   5000 H          15.7608   13.4096    9.4031 H     1250  UNL1250     0.1146
   5001 N          15.4989   12.9350   12.1184 N.3   1251  UNL1251    -0.3437
   5002 H          14.5890   12.5211   12.3165 H     1251  UNL1251     0.1146
   5003 H          15.5860   13.7345   12.7442 H     1251  UNL1251     0.1146
   5004 H          16.1907   12.2560   12.4324 H     1251  UNL1251     0.1146
   5005 N          15.2733   12.7000   14.8467 N.3   1252  UNL1252    -0.3437
   5006 H          14.8316   13.2240   14.0926 H     1252  UNL1252     0.1146
   5007 H          15.9989   12.1345   14.4084 H     1252  UNL1252     0.1146
   5008 H          15.7608   13.3881   15.4188 H     1252  UNL1252     0.1146
   5009 N          15.4035   12.8341   17.2679 N.3   1253  UNL1253    -0.3437
   5010 H          16.3657   13.1247   17.1004 H     1253  UNL1253     0.1146
   5011 H          14.8164   13.5237   16.8007 H     1253  UNL1253     0.1146
   5012 H          15.2791   11.9640   16.7523 H     1253  UNL1253     0.1146
   5013 N          15.2733   12.8341   19.0467 N.3   1254  UNL1254    -0.3437
   5014 H          14.8316   13.1247   19.9178 H     1254  UNL1254     0.1146
   5015 H          15.9989   13.5237   18.8560 H     1254  UNL1254     0.1146
   5016 H          15.7608   11.9640   19.2556 H     1254  UNL1254     0.1146
   5017 N          15.2733   12.8341   21.3354 N.3   1255  UNL1255    -0.3437
   5018 H          14.8316   13.1247   22.2065 H     1255  UNL1255     0.1146
   5019 H          15.9989   13.5237   21.1447 H     1255  UNL1255     0.1146
   5020 H          15.7608   11.9640   21.5443 H     1255  UNL1255     0.1146
   5021 N          15.2733   12.7000   24.0016 N.3   1256  UNL1256    -0.3437
   5022 H          14.8316   13.2240   23.2474 H     1256  UNL1256     0.1146
   5023 H          15.9989   12.1345   23.5632 H     1256  UNL1256     0.1146
   5024 H          15.7608   13.3881   24.5736 H     1256  UNL1256     0.1146
   5025 N          15.2733   13.0563   26.2462 N.3   1257  UNL1257    -0.3437
   5026 H          14.8316   12.1845   25.9577 H     1257  UNL1257     0.1146
   5027 H          15.9989   12.7963   26.9128 H     1257  UNL1257     0.1146
   5028 H          15.7608   13.4096   25.4241 H     1257  UNL1257     0.1146
   5029 N          15.1895   12.8512   29.3203 N.3   1258  UNL1258    -0.3437
   5030 H          15.3272   12.2576   30.1370 H     1258  UNL1258     0.1146
   5031 H          15.4686   13.7891   29.6044 H     1258  UNL1258     0.1146
   5032 H          15.8793   12.5488   28.6338 H     1258  UNL1258     0.1146
   5033 N          15.2733   15.5001    1.3590 N.3   1259  UNL1259    -0.3437
   5034 H          14.8316   14.6283    1.0705 H     1259  UNL1259     0.1146
   5035 H          15.9989   15.2401    2.0256 H     1259  UNL1259     0.1146
   5036 H          15.7608   15.8534    0.5369 H     1259  UNL1259     0.1146
   5037 N          15.2733   15.1438    5.6918 N.3   1260  UNL1260    -0.3437
   5038 H          14.8316   15.6678    4.9377 H     1260  UNL1260     0.1146
   5039 H          15.9989   14.5784    5.2535 H     1260  UNL1260     0.1146
   5040 H          15.7608   15.8319    6.2639 H     1260  UNL1260     0.1146
   5041 N          15.4035   15.2779    8.1130 N.3   1261  UNL1261    -0.3437
   5042 H          16.3657   15.5685    7.9456 H     1261  UNL1261     0.1146
   5043 H          14.8164   15.9675    7.6458 H     1261  UNL1261     0.1146
   5044 H          15.2791   14.4078    7.5974 H     1261  UNL1261     0.1146
   5045 N          15.2733   15.5001   10.2252 N.3   1262  UNL1262    -0.3437
   5046 H          14.8316   14.6283    9.9367 H     1262  UNL1262     0.1146
   5047 H          15.9989   15.2401   10.8918 H     1262  UNL1262     0.1146
   5048 H          15.7608   15.8534    9.4031 H     1262  UNL1262     0.1146
   5049 N          15.2733   15.5001   12.5139 N.3   1263  UNL1263    -0.3437
   5050 H          14.8316   14.6283   12.2254 H     1263  UNL1263     0.1146
   5051 H          15.9989   15.2401   13.1805 H     1263  UNL1263     0.1146
   5052 H          15.7608   15.8534   11.6918 H     1263  UNL1263     0.1146
   5053 N          15.2733   15.2779   14.4693 N.3   1264  UNL1264    -0.3437
   5054 H          14.8316   15.5685   15.3404 H     1264  UNL1264     0.1146
   5055 H          15.9989   15.9675   14.2786 H     1264  UNL1264     0.1146
   5056 H          15.7608   14.4078   14.6782 H     1264  UNL1264     0.1146
   5057 N          15.2733   15.5001   17.0913 N.3   1265  UNL1265    -0.3437
   5058 H          14.8316   14.6283   16.8028 H     1265  UNL1265     0.1146
   5059 H          15.9989   15.2401   17.7579 H     1265  UNL1265     0.1146
   5060 H          15.7608   15.8534   16.2692 H     1265  UNL1265     0.1146
   5061 N          15.2733   15.5001   19.3800 N.3   1266  UNL1266    -0.3437
   5062 H          14.8316   14.6283   19.0915 H     1266  UNL1266     0.1146
   5063 H          15.9989   15.2401   20.0466 H     1266  UNL1266     0.1146
   5064 H          15.7608   15.8534   18.5579 H     1266  UNL1266     0.1146
   5065 N          15.2733   15.5001   21.6687 N.3   1267  UNL1267    -0.3437
   5066 H          14.8316   14.6283   21.3802 H     1267  UNL1267     0.1146
   5067 H          15.9989   15.2401   22.3353 H     1267  UNL1267     0.1146
   5068 H          15.7608   15.8534   20.8466 H     1267  UNL1267     0.1146
   5069 N          15.2733   15.5001   23.9575 N.3   1268  UNL1268    -0.3437
   5070 H          14.8316   14.6283   23.6690 H     1268  UNL1268     0.1146
   5071 H          15.9989   15.2401   24.6241 H     1268  UNL1268     0.1146
   5072 H          15.7608   15.8534   23.1354 H     1268  UNL1268     0.1146
   5073 N          15.2733   15.5001   26.2462 N.3   1269  UNL1269    -0.3437
   5074 H          14.8316   14.6283   25.9577 H     1269  UNL1269     0.1146
   5075 H          15.9989   15.2401   26.9128 H     1269  UNL1269     0.1146
   5076 H          15.7608   15.8534   25.4241 H     1269  UNL1269     0.1146
   5077 N          15.1895   15.2950   29.3203 N.3   1270  UNL1270    -0.3437
   5078 H          15.3272   14.7014   30.1370 H     1270  UNL1270     0.1146
   5079 H          15.4686   16.2329   29.6044 H     1270  UNL1270     0.1146
   5080 H          15.8793   14.9926   28.6338 H     1270  UNL1270     0.1146
   5081 N          15.2733   17.7217    0.7370 N.3   1271  UNL1271    -0.3437
   5082 H          14.8316   18.0123    1.6081 H     1271  UNL1271     0.1146
   5083 H          15.9989   18.4114    0.5463 H     1271  UNL1271     0.1146
   5084 H          15.7608   16.8517    0.9459 H     1271  UNL1271     0.1146
   5085 N          15.2733   17.7217    3.0257 N.3   1272  UNL1272    -0.3437
   5086 H          14.8316   18.0123    3.8968 H     1272  UNL1272     0.1146
   5087 H          15.9989   18.4114    2.8350 H     1272  UNL1272     0.1146
   5088 H          15.7608   16.8517    3.2346 H     1272  UNL1272     0.1146
   5089 N          15.2733   17.7217    5.3144 N.3   1273  UNL1273    -0.3437
   5090 H          14.8316   18.0123    6.1855 H     1273  UNL1273     0.1146
   5091 H          15.9989   18.4114    5.1237 H     1273  UNL1273     0.1146
   5092 H          15.7608   16.8517    5.5233 H     1273  UNL1273     0.1146
   5093 N          15.2733   17.7217    7.6031 N.3   1274  UNL1274    -0.3437
   5094 H          14.8316   18.0123    8.4742 H     1274  UNL1274     0.1146
   5095 H          15.9989   18.4114    7.4124 H     1274  UNL1274     0.1146
   5096 H          15.7608   16.8517    7.8120 H     1274  UNL1274     0.1146
   5097 N          15.2733   17.7217    9.8918 N.3   1275  UNL1275    -0.3437
   5098 H          14.8316   18.0123   10.7629 H     1275  UNL1275     0.1146
   5099 H          15.9989   18.4114    9.7011 H     1275  UNL1275     0.1146
   5100 H          15.7608   16.8517   10.1007 H     1275  UNL1275     0.1146
   5101 N          15.2733   17.7217   12.1806 N.3   1276  UNL1276    -0.3437
   5102 H          14.8316   18.0123   13.0517 H     1276  UNL1276     0.1146
   5103 H          15.9989   18.4114   11.9899 H     1276  UNL1276     0.1146
   5104 H          15.7608   16.8517   12.3895 H     1276  UNL1276     0.1146
   5105 N          15.2733   17.5876   14.8467 N.3   1277  UNL1277    -0.3437
   5106 H          14.8316   18.1116   14.0926 H     1277  UNL1277     0.1146
   5107 H          15.9989   17.0222   14.4084 H     1277  UNL1277     0.1146
   5108 H          15.7608   18.2757   15.4188 H     1277  UNL1277     0.1146
   5109 N          15.2733   17.7217   16.7580 N.3   1278  UNL1278    -0.3437
   5110 H          14.8316   18.0123   17.6291 H     1278  UNL1278     0.1146
   5111 H          15.9989   18.4114   16.5673 H     1278  UNL1278     0.1146
   5112 H          15.7608   16.8517   16.9669 H     1278  UNL1278     0.1146
   5113 N          15.4799   17.9372   19.0413 N.3   1279  UNL1279    -0.3437
   5114 H          14.8584   18.2600   19.7815 H     1279  UNL1279     0.1146
   5115 H          16.3861   17.7848   19.4818 H     1279  UNL1279     0.1146
   5116 H          15.1402   17.0151   18.7716 H     1279  UNL1279     0.1146
   5117 N          15.2733   17.7217   21.3354 N.3   1280  UNL1280    -0.3437
   5118 H          14.8316   18.0123   22.2065 H     1280  UNL1280     0.1146
   5119 H          15.9989   18.4114   21.1447 H     1280  UNL1280     0.1146
   5120 H          15.7608   16.8517   21.5443 H     1280  UNL1280     0.1146
   5121 N          15.2733   17.7217   23.6241 N.3   1281  UNL1281    -0.3437
   5122 H          14.8316   18.0123   24.4952 H     1281  UNL1281     0.1146
   5123 H          15.9989   18.4114   23.4334 H     1281  UNL1281     0.1146
   5124 H          15.7608   16.8517   23.8330 H     1281  UNL1281     0.1146
   5125 N          15.2733   17.7217   25.9128 N.3   1282  UNL1282    -0.3437
   5126 H          14.8316   18.0123   26.7840 H     1282  UNL1282     0.1146
   5127 H          15.9989   18.4114   25.7221 H     1282  UNL1282     0.1146
   5128 H          15.7608   16.8517   26.1217 H     1282  UNL1282     0.1146
   5129 N          15.2733   17.7217   28.2016 N.3   1283  UNL1283    -0.3437
   5130 H          14.8316   18.0123   29.0727 H     1283  UNL1283     0.1146
   5131 H          15.9989   18.4114   28.0109 H     1283  UNL1283     0.1146
   5132 H          15.7608   16.8517   28.4105 H     1283  UNL1283     0.1146
   5133 N          15.2733   20.3877    1.0703 N.3   1284  UNL1284    -0.3437
   5134 H          14.8316   19.5159    0.7818 H     1284  UNL1284     0.1146
   5135 H          15.9989   20.1278    1.7369 H     1284  UNL1284     0.1146
   5136 H          15.7608   20.7410    0.2482 H     1284  UNL1284     0.1146
   5137 N          15.2369   20.0727    3.1055 N.3   1285  UNL1285    -0.3437
   5138 H          15.3646   19.6895    4.0410 H     1285  UNL1285     0.1146
   5139 H          15.1418   21.0802    3.2252 H     1285  UNL1285     0.1146
   5140 H          16.1214   19.9299    2.6203 H     1285  UNL1285     0.1146
   5141 N          15.2369   20.0727    5.3942 N.3   1286  UNL1286    -0.3437
   5142 H          15.3646   19.6895    6.3298 H     1286  UNL1286     0.1146
   5143 H          15.1418   21.0802    5.5140 H     1286  UNL1286     0.1146
   5144 H          16.1214   19.9299    4.9090 H     1286  UNL1286     0.1146
   5145 N          15.2733   20.3877    7.9365 N.3   1287  UNL1287    -0.3437
   5146 H          14.8316   19.5159    7.6479 H     1287  UNL1287     0.1146
   5147 H          15.9989   20.1278    8.6031 H     1287  UNL1287     0.1146
   5148 H          15.7608   20.7410    7.1144 H     1287  UNL1287     0.1146
   5149 N          15.2733   20.3877   10.2252 N.3   1288  UNL1288    -0.3437
   5150 H          14.8316   19.5159    9.9367 H     1288  UNL1288     0.1146
   5151 H          15.9989   20.1278   10.8918 H     1288  UNL1288     0.1146
   5152 H          15.7608   20.7410    9.4031 H     1288  UNL1288     0.1146
   5153 N          15.2369   20.0727   12.2604 N.3   1289  UNL1289    -0.3437
   5154 H          15.3646   19.6895   13.1959 H     1289  UNL1289     0.1146
   5155 H          15.1418   21.0802   12.3801 H     1289  UNL1289     0.1146
   5156 H          16.1214   19.9299   11.7751 H     1289  UNL1289     0.1146
   5157 N          15.2733   20.3877   14.8026 N.3   1290  UNL1290    -0.3437
   5158 H          14.8316   19.5159   14.5141 H     1290  UNL1290     0.1146
   5159 H          15.9989   20.1278   15.4692 H     1290  UNL1290     0.1146
   5160 H          15.7608   20.7410   13.9805 H     1290  UNL1290     0.1146
   5161 N          15.2733   20.3877   17.0913 N.3   1291  UNL1291    -0.3437
   5162 H          14.8316   19.5159   16.8028 H     1291  UNL1291     0.1146
   5163 H          15.9989   20.1278   17.7579 H     1291  UNL1291     0.1146
   5164 H          15.7608   20.7410   16.2692 H     1291  UNL1291     0.1146
   5165 N          15.2733   20.3877   19.3800 N.3   1292  UNL1292    -0.3437
   5166 H          14.8316   19.5159   19.0915 H     1292  UNL1292     0.1146
   5167 H          15.9989   20.1278   20.0466 H     1292  UNL1292     0.1146
   5168 H          15.7608   20.7410   18.5579 H     1292  UNL1292     0.1146
   5169 N          15.2733   20.3877   21.6687 N.3   1293  UNL1293    -0.3437
   5170 H          14.8316   19.5159   21.3802 H     1293  UNL1293     0.1146
   5171 H          15.9989   20.1278   22.3353 H     1293  UNL1293     0.1146
   5172 H          15.7608   20.7410   20.8466 H     1293  UNL1293     0.1146
   5173 N          15.2733   20.3877   23.9575 N.3   1294  UNL1294    -0.3437
   5174 H          14.8316   19.5159   23.6690 H     1294  UNL1294     0.1146
   5175 H          15.9989   20.1278   24.6241 H     1294  UNL1294     0.1146
   5176 H          15.7608   20.7410   23.1354 H     1294  UNL1294     0.1146
   5177 N          15.2733   20.1656   25.9128 N.3   1295  UNL1295    -0.3437
   5178 H          14.8316   20.4562   26.7840 H     1295  UNL1295     0.1146
   5179 H          15.9989   20.8552   25.7221 H     1295  UNL1295     0.1146
   5180 H          15.7608   19.2955   26.1217 H     1295  UNL1295     0.1146
   5181 N          15.1895   20.1826   29.3203 N.3   1296  UNL1296    -0.3437
   5182 H          15.3272   19.5890   30.1370 H     1296  UNL1296     0.1146
   5183 H          15.4686   21.1205   29.6044 H     1296  UNL1296     0.1146
   5184 H          15.8793   19.8802   28.6338 H     1296  UNL1296     0.1146
   5185 N          15.2733   22.8315    1.0703 N.3   1297  UNL1297    -0.3437
   5186 H          14.8316   21.9597    0.7818 H     1297  UNL1297     0.1146
   5187 H          15.9989   22.5716    1.7369 H     1297  UNL1297     0.1146
   5188 H          15.7608   23.1848    0.2482 H     1297  UNL1297     0.1146
   5189 N          15.2733   22.8315    3.3590 N.3   1298  UNL1298    -0.3437
   5190 H          14.8316   21.9597    3.0705 H     1298  UNL1298     0.1146
   5191 H          15.9989   22.5716    4.0256 H     1298  UNL1298     0.1146
   5192 H          15.7608   23.1848    2.5369 H     1298  UNL1298     0.1146
   5193 N          15.2733   22.8315    5.6477 N.3   1299  UNL1299    -0.3437
   5194 H          14.8316   21.9597    5.3592 H     1299  UNL1299     0.1146
   5195 H          15.9989   22.5716    6.3143 H     1299  UNL1299     0.1146
   5196 H          15.7608   23.1848    4.8256 H     1299  UNL1299     0.1146
   5197 N          15.2733   22.8315    7.9365 N.3   1300  UNL1300    -0.3437
   5198 H          14.8316   21.9597    7.6479 H     1300  UNL1300     0.1146
   5199 H          15.9989   22.5716    8.6031 H     1300  UNL1300     0.1146
   5200 H          15.7608   23.1848    7.1144 H     1300  UNL1300     0.1146
   5201 N          15.2733   22.8315   10.2252 N.3   1301  UNL1301    -0.3437
   5202 H          14.8316   21.9597    9.9367 H     1301  UNL1301     0.1146
   5203 H          15.9989   22.5716   10.8918 H     1301  UNL1301     0.1146
   5204 H          15.7608   23.1848    9.4031 H     1301  UNL1301     0.1146
   5205 N          15.2733   22.6094   12.1806 N.3   1302  UNL1302    -0.3437
   5206 H          14.8316   22.9000   13.0517 H     1302  UNL1302     0.1146
   5207 H          15.9989   23.2990   11.9899 H     1302  UNL1302     0.1146
   5208 H          15.7608   21.7393   12.3895 H     1302  UNL1302     0.1146
   5209 N          15.2733   22.4752   14.8467 N.3   1303  UNL1303    -0.3437
   5210 H          14.8316   22.9992   14.0926 H     1303  UNL1303     0.1146
   5211 H          15.9989   21.9098   14.4084 H     1303  UNL1303     0.1146
   5212 H          15.7608   23.1633   15.4188 H     1303  UNL1303     0.1146
   5213 N          15.4035   22.6094   17.2679 N.3   1304  UNL1304    -0.3437
   5214 H          16.3657   22.9000   17.1004 H     1304  UNL1304     0.1146
   5215 H          14.8164   23.2990   16.8007 H     1304  UNL1304     0.1146
   5216 H          15.2791   21.7393   16.7523 H     1304  UNL1304     0.1146
   5217 N          15.4035   22.6094   19.5566 N.3   1305  UNL1305    -0.3437
   5218 H          16.3657   22.9000   19.3891 H     1305  UNL1305     0.1146
   5219 H          14.8164   23.2990   19.0894 H     1305  UNL1305     0.1146
   5220 H          15.2791   21.7393   19.0410 H     1305  UNL1305     0.1146
   5221 N          15.2733   22.6094   21.3354 N.3   1306  UNL1306    -0.3437
   5222 H          14.8316   22.9000   22.2065 H     1306  UNL1306     0.1146
   5223 H          15.9989   23.2990   21.1447 H     1306  UNL1306     0.1146
   5224 H          15.7608   21.7393   21.5443 H     1306  UNL1306     0.1146
   5225 N          15.2733   22.4752   24.0016 N.3   1307  UNL1307    -0.3437
   5226 H          14.8316   22.9992   23.2474 H     1307  UNL1307     0.1146
   5227 H          15.9989   21.9098   23.5632 H     1307  UNL1307     0.1146
   5228 H          15.7608   23.1633   24.5736 H     1307  UNL1307     0.1146
   5229 N          15.2733   22.8315   26.2462 N.3   1308  UNL1308    -0.3437
   5230 H          14.8316   21.9597   25.9577 H     1308  UNL1308     0.1146
   5231 H          15.9989   22.5716   26.9128 H     1308  UNL1308     0.1146
   5232 H          15.7608   23.1848   25.4241 H     1308  UNL1308     0.1146
   5233 N          15.1895   22.6264   29.3203 N.3   1309  UNL1309    -0.3437
   5234 H          15.3272   22.0328   30.1370 H     1309  UNL1309     0.1146
   5235 H          15.4686   23.5643   29.6044 H     1309  UNL1309     0.1146
   5236 H          15.8793   22.3240   28.6338 H     1309  UNL1309     0.1146
   5237 N          15.2179   25.2393    1.2718 N.3   1310  UNL1310    -0.3437
   5238 H          15.6340   25.0207    2.1759 H     1310  UNL1310     0.1146
   5239 H          15.9418   25.7180    0.7378 H     1310  UNL1310     0.1146
   5240 H          15.0709   24.3447    0.8066 H     1310  UNL1310     0.1146
   5241 N          15.7597   25.0532    3.5153 N.3   1311  UNL1311    -0.3437
   5242 H          15.3261   25.3438    2.6401 H     1311  UNL1311     0.1146
   5243 H          15.4782   25.7428    4.2107 H     1311  UNL1311     0.1146
   5244 H          15.3006   24.1831    3.7808 H     1311  UNL1311     0.1146
   5245 N          15.2179   25.2393    5.8492 N.3   1312  UNL1312    -0.3437
   5246 H          15.6340   25.0207    6.7534 H     1312  UNL1312     0.1146
   5247 H          15.9418   25.7180    5.3152 H     1312  UNL1312     0.1146
   5248 H          15.0709   24.3447    5.3840 H     1312  UNL1312     0.1146
   5249 N          15.2733   24.9191   10.2693 N.3   1313  UNL1313    -0.3437
   5250 H          14.8316   25.4430    9.5151 H     1313  UNL1313     0.1146
   5251 H          15.9989   24.3536    9.8309 H     1313  UNL1313     0.1146
   5252 H          15.7608   25.6071   10.8413 H     1313  UNL1313     0.1146
   5253 N          15.4035   25.0532   12.6904 N.3   1314  UNL1314    -0.3437
   5254 H          16.3657   25.3438   12.5230 H     1314  UNL1314     0.1146
   5255 H          14.8164   25.7428   12.2232 H     1314  UNL1314     0.1146
   5256 H          15.2791   24.1831   12.1749 H     1314  UNL1314     0.1146
   5257 N          15.4799   25.2686   14.4638 N.3   1315  UNL1315    -0.3437
   5258 H          14.8584   25.5914   15.2040 H     1315  UNL1315     0.1146
   5259 H          16.3861   25.1162   14.9044 H     1315  UNL1315     0.1146
   5260 H          15.1402   24.3465   14.1941 H     1315  UNL1315     0.1146
   5261 N          15.4799   25.2686   16.7525 N.3   1316  UNL1316    -0.3437
   5262 H          14.8584   25.5914   17.4928 H     1316  UNL1316     0.1146
   5263 H          16.3861   25.1162   17.1931 H     1316  UNL1316     0.1146
   5264 H          15.1402   24.3465   16.4829 H     1316  UNL1316     0.1146
   5265 N          15.4799   25.2686   19.0413 N.3   1317  UNL1317    -0.3437
   5266 H          14.8584   25.5914   19.7815 H     1317  UNL1317     0.1146
   5267 H          16.3861   25.1162   19.4818 H     1317  UNL1317     0.1146
   5268 H          15.1402   24.3465   18.7716 H     1317  UNL1317     0.1146
   5269 N          15.2733   25.0532   21.3354 N.3   1318  UNL1318    -0.3437
   5270 H          14.8316   25.3438   22.2065 H     1318  UNL1318     0.1146
   5271 H          15.9989   25.7428   21.1447 H     1318  UNL1318     0.1146
   5272 H          15.7608   24.1831   21.5443 H     1318  UNL1318     0.1146
   5273 N          15.2733   24.9191   24.0016 N.3   1319  UNL1319    -0.3437
   5274 H          14.8316   25.4430   23.2474 H     1319  UNL1319     0.1146
   5275 H          15.9989   24.3536   23.5632 H     1319  UNL1319     0.1146
   5276 H          15.7608   25.6071   24.5736 H     1319  UNL1319     0.1146
   5277 N          15.4035   25.0532   26.4227 N.3   1320  UNL1320    -0.3437
   5278 H          16.3657   25.3438   26.2553 H     1320  UNL1320     0.1146
   5279 H          14.8164   25.7428   25.9555 H     1320  UNL1320     0.1146
   5280 H          15.2791   24.1831   25.9071 H     1320  UNL1320     0.1146
   5281 N          15.1895   25.0702   29.3203 N.3   1321  UNL1321    -0.3437
   5282 H          15.3272   24.4766   30.1370 H     1321  UNL1321     0.1146
   5283 H          15.4686   26.0081   29.6044 H     1321  UNL1321     0.1146
   5284 H          15.8793   24.7678   28.6338 H     1321  UNL1321     0.1146
   5285 N          15.2733   27.4970    0.7370 N.3   1322  UNL1322    -0.3437
   5286 H          14.8316   27.7876    1.6081 H     1322  UNL1322     0.1146
   5287 H          15.9989   28.1866    0.5463 H     1322  UNL1322     0.1146
   5288 H          15.7608   26.6269    0.9459 H     1322  UNL1322     0.1146
   5289 N          15.2733   27.4970    3.0257 N.3   1323  UNL1323    -0.3437
   5290 H          14.8316   27.7876    3.8968 H     1323  UNL1323     0.1146
   5291 H          15.9989   28.1866    2.8350 H     1323  UNL1323     0.1146
   5292 H          15.7608   26.6269    3.2346 H     1323  UNL1323     0.1146
   5293 N          15.2733   27.4970    5.3144 N.3   1324  UNL1324    -0.3437
   5294 H          14.8316   27.7876    6.1855 H     1324  UNL1324     0.1146
   5295 H          15.9989   28.1866    5.1237 H     1324  UNL1324     0.1146
   5296 H          15.7608   26.6269    5.5233 H     1324  UNL1324     0.1146
   5297 N          15.2733   27.4970    7.6031 N.3   1325  UNL1325    -0.3437
   5298 H          14.8316   27.7876    8.4742 H     1325  UNL1325     0.1146
   5299 H          15.9989   28.1866    7.4124 H     1325  UNL1325     0.1146
   5300 H          15.7608   26.6269    7.8120 H     1325  UNL1325     0.1146
   5301 N          15.2733   27.4970    9.8918 N.3   1326  UNL1326    -0.3437
   5302 H          14.8316   27.7876   10.7629 H     1326  UNL1326     0.1146
   5303 H          15.9989   28.1866    9.7011 H     1326  UNL1326     0.1146
   5304 H          15.7608   26.6269   10.1007 H     1326  UNL1326     0.1146
   5305 N          15.2733   27.4970   12.1806 N.3   1327  UNL1327    -0.3437
   5306 H          14.8316   27.7876   13.0517 H     1327  UNL1327     0.1146
   5307 H          15.9989   28.1866   11.9899 H     1327  UNL1327     0.1146
   5308 H          15.7608   26.6269   12.3895 H     1327  UNL1327     0.1146
   5309 N          15.5595   27.6955   14.4693 N.3   1328  UNL1328    -0.3437
   5310 H          16.0567   27.8754   15.3404 H     1328  UNL1328     0.1146
   5311 H          15.6778   26.7015   14.2786 H     1328  UNL1328     0.1146
   5312 H          14.5707   27.8256   14.6782 H     1328  UNL1328     0.1146
   5313 N          15.2733   27.4970   16.7580 N.3   1329  UNL1329    -0.3437
   5314 H          14.8316   27.7876   17.6291 H     1329  UNL1329     0.1146
   5315 H          15.9989   28.1866   16.5673 H     1329  UNL1329     0.1146
   5316 H          15.7608   26.6269   16.9669 H     1329  UNL1329     0.1146
   5317 N          15.2733   27.4970   19.0467 N.3   1330  UNL1330    -0.3437
   5318 H          14.8316   27.7876   19.9178 H     1330  UNL1330     0.1146
   5319 H          15.9989   28.1866   18.8560 H     1330  UNL1330     0.1146
   5320 H          15.7608   26.6269   19.2556 H     1330  UNL1330     0.1146
   5321 N          15.5105   27.3058   21.3639 N.3   1331  UNL1331    -0.3437
   5322 H          14.5660   27.3078   21.7464 H     1331  UNL1331     0.1146
   5323 H          15.6501   28.2290   20.9556 H     1331  UNL1331     0.1146
   5324 H          16.1380   27.2554   22.1652 H     1331  UNL1331     0.1146
   5325 N          15.4799   27.7124   23.6187 N.3   1332  UNL1332    -0.3437
   5326 H          14.8584   28.0352   24.3589 H     1332  UNL1332     0.1146
   5327 H          16.3861   27.5600   24.0592 H     1332  UNL1332     0.1146
   5328 H          15.1402   26.7903   23.3490 H     1332  UNL1332     0.1146
   5329 N          15.2733   27.4970   25.9128 N.3   1333  UNL1333    -0.3437
   5330 H          14.8316   27.7876   26.7840 H     1333  UNL1333     0.1146
   5331 H          15.9989   28.1866   25.7221 H     1333  UNL1333     0.1146
   5332 H          15.7608   26.6269   26.1217 H     1333  UNL1333     0.1146
   5333 N          15.2733   27.4970   28.2016 N.3   1334  UNL1334    -0.3437
   5334 H          14.8316   27.7876   29.0727 H     1334  UNL1334     0.1146
   5335 H          15.9989   28.1866   28.0109 H     1334  UNL1334     0.1146
   5336 H          15.7608   26.6269   28.4105 H     1334  UNL1334     0.1146
   5337 N          15.2733   30.9408    0.7370 N.3   1335  UNL1335    -0.3437
   5338 H          14.8316   31.2314    1.6081 H     1335  UNL1335     0.1146
   5339 H          15.9989   31.6304    0.5463 H     1335  UNL1335     0.1146
   5340 H          15.7608   30.0707    0.9459 H     1335  UNL1335     0.1146
   5341 N          15.2733   30.9408    3.0257 N.3   1336  UNL1336    -0.3437
   5342 H          14.8316   31.2314    3.8968 H     1336  UNL1336     0.1146
   5343 H          15.9989   31.6304    2.8350 H     1336  UNL1336     0.1146
   5344 H          15.7608   30.0707    3.2346 H     1336  UNL1336     0.1146
   5345 N          15.2733   30.9408    5.3144 N.3   1337  UNL1337    -0.3437
   5346 H          14.8316   31.2314    6.1855 H     1337  UNL1337     0.1146
   5347 H          15.9989   31.6304    5.1237 H     1337  UNL1337     0.1146
   5348 H          15.7608   30.0707    5.5233 H     1337  UNL1337     0.1146
   5349 N          15.4035   29.9408    8.1130 N.3   1338  UNL1338    -0.3437
   5350 H          16.3657   30.2314    7.9456 H     1338  UNL1338     0.1146
   5351 H          14.8164   30.6304    7.6458 H     1338  UNL1338     0.1146
   5352 H          15.2791   29.0707    7.5974 H     1338  UNL1338     0.1146
   5353 N          15.2733   30.9408    9.8918 N.3   1339  UNL1339    -0.3437
   5354 H          14.8316   31.2314   10.7629 H     1339  UNL1339     0.1146
   5355 H          15.9989   31.6304    9.7011 H     1339  UNL1339     0.1146
   5356 H          15.7608   30.0707   10.1007 H     1339  UNL1339     0.1146
   5357 N          15.2733   30.9408   12.1806 N.3   1340  UNL1340    -0.3437
   5358 H          14.8316   31.2314   13.0517 H     1340  UNL1340     0.1146
   5359 H          15.9989   31.6304   11.9899 H     1340  UNL1340     0.1146
   5360 H          15.7608   30.0707   12.3895 H     1340  UNL1340     0.1146
   5361 N          15.4510   31.1952   14.5027 N.3   1341  UNL1341    -0.3437
   5362 H          14.6450   31.1453   15.1242 H     1341  UNL1341     0.1146
   5363 H          16.2698   31.2400   15.1077 H     1341  UNL1341     0.1146
   5364 H          15.4989   30.2928   14.0318 H     1341  UNL1341     0.1146
   5365 N          15.2733   30.9408   16.7580 N.3   1342  UNL1342    -0.3437
   5366 H          14.8316   31.2314   17.6291 H     1342  UNL1342     0.1146
   5367 H          15.9989   31.6304   16.5673 H     1342  UNL1342     0.1146
   5368 H          15.7608   30.0707   16.9669 H     1342  UNL1342     0.1146
   5369 N          15.2733   30.9408   19.0467 N.3   1343  UNL1343    -0.3437
   5370 H          14.8316   31.2314   19.9178 H     1343  UNL1343     0.1146
   5371 H          15.9989   31.6304   18.8560 H     1343  UNL1343     0.1146
   5372 H          15.7608   30.0707   19.2556 H     1343  UNL1343     0.1146
   5373 N          15.2733   30.9408   21.3354 N.3   1344  UNL1344    -0.3437
   5374 H          14.8316   31.2314   22.2065 H     1344  UNL1344     0.1146
   5375 H          15.9989   31.6304   21.1447 H     1344  UNL1344     0.1146
   5376 H          15.7608   30.0707   21.5443 H     1344  UNL1344     0.1146
   5377 N          15.4510   31.1952   23.6576 N.3   1345  UNL1345    -0.3437
   5378 H          14.6450   31.1453   24.2790 H     1345  UNL1345     0.1146
   5379 H          16.2698   31.2400   24.2626 H     1345  UNL1345     0.1146
   5380 H          15.4989   30.2928   23.1867 H     1345  UNL1345     0.1146
   5381 N          15.2733   30.9408   25.9128 N.3   1346  UNL1346    -0.3437
   5382 H          14.8316   31.2314   26.7840 H     1346  UNL1346     0.1146
   5383 H          15.9989   31.6304   25.7221 H     1346  UNL1346     0.1146
   5384 H          15.7608   30.0707   26.1217 H     1346  UNL1346     0.1146
   5385 N          15.7597   30.9408   29.4024 N.3   1347  UNL1347    -0.3437
   5386 H          15.3261   31.2314   28.5273 H     1347  UNL1347     0.1146
   5387 H          15.4782   31.6304   30.0979 H     1347  UNL1347     0.1146
   5388 H          15.3006   30.0707   29.6680 H     1347  UNL1347     0.1146
   5389 N          17.4675    0.8372    1.3590 N.3   1348  UNL1348    -0.3437
   5390 H          17.0258   -0.0346    1.0705 H     1348  UNL1348     0.1146
   5391 H          18.1931    0.5773    2.0256 H     1348  UNL1348     0.1146
   5392 H          17.9550    1.1906    0.5369 H     1348  UNL1348     0.1146
   5393 N          17.4675    0.8372    3.6477 N.3   1349  UNL1349    -0.3437
   5394 H          17.0258   -0.0346    3.3592 H     1349  UNL1349     0.1146
   5395 H          18.1931    0.5773    4.3143 H     1349  UNL1349     0.1146
   5396 H          17.9550    1.1906    2.8256 H     1349  UNL1349     0.1146
   5397 N          17.4120    0.8013    5.8492 N.3   1350  UNL1350    -0.3437
   5398 H          17.8281    0.5827    6.7534 H     1350  UNL1350     0.1146
   5399 H          18.1360    1.2799    5.3152 H     1350  UNL1350     0.1146
   5400 H          17.2651   -0.0933    5.3840 H     1350  UNL1350     0.1146
   5401 N          17.4459    0.4424    8.1501 N.3   1351  UNL1351    -0.3437
   5402 H          17.5043    1.1007    8.9257 H     1351  UNL1351     0.1146
   5403 H          17.3210    1.0071    7.3112 H     1351  UNL1351     0.1146
   5404 H          18.3700    0.0204    8.0696 H     1351  UNL1351     0.1146
   5405 N          17.4675    0.8372   10.5139 N.3   1352  UNL1352    -0.3437
   5406 H          17.0258   -0.0346   10.2254 H     1352  UNL1352     0.1146
   5407 H          18.1931    0.5773   11.1805 H     1352  UNL1352     0.1146
   5408 H          17.9550    1.1906    9.6918 H     1352  UNL1352     0.1146
   5409 N          17.4675    0.8372   12.8026 N.3   1353  UNL1353    -0.3437
   5410 H          17.0258   -0.0346   12.5141 H     1353  UNL1353     0.1146
   5411 H          18.1931    0.5773   13.4692 H     1353  UNL1353     0.1146
   5412 H          17.9550    1.1906   11.9805 H     1353  UNL1353     0.1146
   5413 N          17.4120    0.8013   15.0041 N.3   1354  UNL1354    -0.3437
   5414 H          17.8281    0.5827   15.9082 H     1354  UNL1354     0.1146
   5415 H          18.1360    1.2799   14.4701 H     1354  UNL1354     0.1146
   5416 H          17.2651   -0.0933   14.5389 H     1354  UNL1354     0.1146
   5417 N          17.4459    0.4424   17.3050 N.3   1355  UNL1355    -0.3437
   5418 H          17.5043    1.1007   18.0806 H     1355  UNL1355     0.1146
   5419 H          17.3210    1.0071   16.4660 H     1355  UNL1355     0.1146
   5420 H          18.3700    0.0204   17.2245 H     1355  UNL1355     0.1146
   5421 N          17.3837    0.6321   21.4541 N.3   1356  UNL1356    -0.3437
   5422 H          17.5214    0.0386   22.2709 H     1356  UNL1356     0.1146
   5423 H          17.6628    1.5701   21.7383 H     1356  UNL1356     0.1146
   5424 H          18.0734    0.3298   20.7677 H     1356  UNL1356     0.1146
   5425 N          17.6741    0.8305   23.6187 N.3   1357  UNL1357    -0.3437
   5426 H          17.0526    1.1534   24.3589 H     1357  UNL1357     0.1146
   5427 H          18.5802    0.6782   24.0592 H     1357  UNL1357     0.1146
   5428 H          17.3344   -0.0916   23.3490 H     1357  UNL1357     0.1146
   5429 N          17.6741    0.8305   25.9074 N.3   1358  UNL1358    -0.3437
   5430 H          17.0526    1.1534   26.6476 H     1358  UNL1358     0.1146
   5431 H          18.5802    0.6782   26.3480 H     1358  UNL1358     0.1146
   5432 H          17.3344   -0.0916   25.6377 H     1358  UNL1358     0.1146
   5433 N          17.3837    0.6321   29.3203 N.3   1359  UNL1359    -0.3437
   5434 H          17.5214    0.0386   30.1370 H     1359  UNL1359     0.1146
   5435 H          17.6628    1.5701   29.6044 H     1359  UNL1359     0.1146
   5436 H          18.0734    0.3298   28.6338 H     1359  UNL1359     0.1146
   5437 N          17.4675    3.2810    1.0703 N.3   1360  UNL1360    -0.3437
   5438 H          17.0258    2.4092    0.7818 H     1360  UNL1360     0.1146
   5439 H          18.1931    3.0211    1.7369 H     1360  UNL1360     0.1146
   5440 H          17.9550    3.6344    0.2482 H     1360  UNL1360     0.1146
   5441 N          17.4675    3.2810    3.3590 N.3   1361  UNL1361    -0.3437
   5442 H          17.0258    2.4092    3.0705 H     1361  UNL1361     0.1146
   5443 H          18.1931    3.0211    4.0256 H     1361  UNL1361     0.1146
   5444 H          17.9550    3.6344    2.5369 H     1361  UNL1361     0.1146
   5445 N          17.4675    3.0589    5.3144 N.3   1362  UNL1362    -0.3437
   5446 H          17.0258    3.3495    6.1855 H     1362  UNL1362     0.1146
   5447 H          18.1931    3.7485    5.1237 H     1362  UNL1362     0.1146
   5448 H          17.9550    2.1888    5.5233 H     1362  UNL1362     0.1146
   5449 N          17.4675    2.9248    7.9806 N.3   1363  UNL1363    -0.3437
   5450 H          17.0258    3.4488    7.2264 H     1363  UNL1363     0.1146
   5451 H          18.1931    2.3593    7.5422 H     1363  UNL1363     0.1146
   5452 H          17.9550    3.6129    8.5526 H     1363  UNL1363     0.1146
   5453 N          17.4675    3.2810   10.2252 N.3   1364  UNL1364    -0.3437
   5454 H          17.0258    2.4092    9.9367 H     1364  UNL1364     0.1146
   5455 H          18.1931    3.0211   10.8918 H     1364  UNL1364     0.1146
   5456 H          17.9550    3.6344    9.4031 H     1364  UNL1364     0.1146
   5457 N          17.4675    3.2810   12.5139 N.3   1365  UNL1365    -0.3437
   5458 H          17.0258    2.4092   12.2254 H     1365  UNL1365     0.1146
   5459 H          18.1931    3.0211   13.1805 H     1365  UNL1365     0.1146
   5460 H          17.9550    3.6344   11.6918 H     1365  UNL1365     0.1146
   5461 N          17.4675    3.2810   14.8026 N.3   1366  UNL1366    -0.3437
   5462 H          17.0258    2.4092   14.5141 H     1366  UNL1366     0.1146
   5463 H          18.1931    3.0211   15.4692 H     1366  UNL1366     0.1146
   5464 H          17.9550    3.6344   13.9805 H     1366  UNL1366     0.1146
   5465 N          17.4675    3.2810   17.0913 N.3   1367  UNL1367    -0.3437
   5466 H          17.0258    2.4092   16.8028 H     1367  UNL1367     0.1146
   5467 H          18.1931    3.0211   17.7579 H     1367  UNL1367     0.1146
   5468 H          17.9550    3.6344   16.2692 H     1367  UNL1367     0.1146
   5469 N          17.4675    3.0589   19.0467 N.3   1368  UNL1368    -0.3437
   5470 H          17.0258    3.3495   19.9178 H     1368  UNL1368     0.1146
   5471 H          18.1931    3.7485   18.8560 H     1368  UNL1368     0.1146
   5472 H          17.9550    2.1888   19.2556 H     1368  UNL1368     0.1146
   5473 N          17.4675    3.0589   21.3354 N.3   1369  UNL1369    -0.3437
   5474 H          17.0258    3.3495   22.2065 H     1369  UNL1369     0.1146
   5475 H          18.1931    3.7485   21.1447 H     1369  UNL1369     0.1146
   5476 H          17.9550    2.1888   21.5443 H     1369  UNL1369     0.1146
   5477 N          17.4675    2.9248   24.0016 N.3   1370  UNL1370    -0.3437
   5478 H          17.0258    3.4488   23.2474 H     1370  UNL1370     0.1146
   5479 H          18.1931    2.3593   23.5632 H     1370  UNL1370     0.1146
   5480 H          17.9550    3.6129   24.5736 H     1370  UNL1370     0.1146
   5481 N          17.4675    3.2810   26.2462 N.3   1371  UNL1371    -0.3437
   5482 H          17.0258    2.4092   25.9577 H     1371  UNL1371     0.1146
   5483 H          18.1931    3.0211   26.9128 H     1371  UNL1371     0.1146
   5484 H          17.9550    3.6344   25.4241 H     1371  UNL1371     0.1146
   5485 N          17.3837    3.0759   29.3203 N.3   1372  UNL1372    -0.3437
   5486 H          17.5214    2.4824   30.1370 H     1372  UNL1372     0.1146
   5487 H          17.6628    4.0139   29.6044 H     1372  UNL1372     0.1146
   5488 H          18.0734    2.7736   28.6338 H     1372  UNL1372     0.1146
   5489 N          17.4675    5.5027    0.7370 N.3   1373  UNL1373    -0.3437
   5490 H          17.0258    5.7933    1.6081 H     1373  UNL1373     0.1146
   5491 H          18.1931    6.1923    0.5463 H     1373  UNL1373     0.1146
   5492 H          17.9550    4.6326    0.9459 H     1373  UNL1373     0.1146
   5493 N          17.6741    5.7181    3.0203 N.3   1374  UNL1374    -0.3437
   5494 H          17.0526    6.0410    3.7605 H     1374  UNL1374     0.1146
   5495 H          18.5802    5.5658    3.4608 H     1374  UNL1374     0.1146
   5496 H          17.3344    4.7961    2.7506 H     1374  UNL1374     0.1146
   5497 N          17.6741    5.7181    5.3090 N.3   1375  UNL1375    -0.3437
   5498 H          17.0526    6.0410    6.0492 H     1375  UNL1375     0.1146
   5499 H          18.5802    5.5658    5.7495 H     1375  UNL1375     0.1146
   5500 H          17.3344    4.7961    5.0393 H     1375  UNL1375     0.1146
   5501 N          17.4675    5.5027    7.6031 N.3   1376  UNL1376    -0.3437
   5502 H          17.0258    5.7933    8.4742 H     1376  UNL1376     0.1146
   5503 H          18.1931    6.1923    7.4124 H     1376  UNL1376     0.1146
   5504 H          17.9550    4.6326    7.8120 H     1376  UNL1376     0.1146
   5505 N          17.4675    5.5027    9.8918 N.3   1377  UNL1377    -0.3437
   5506 H          17.0258    5.7933   10.7629 H     1377  UNL1377     0.1146
   5507 H          18.1931    6.1923    9.7011 H     1377  UNL1377     0.1146
   5508 H          17.9550    4.6326   10.1007 H     1377  UNL1377     0.1146
   5509 N          17.4675    5.5027   12.1806 N.3   1378  UNL1378    -0.3437
   5510 H          17.0258    5.7933   13.0517 H     1378  UNL1378     0.1146
   5511 H          18.1931    6.1923   11.9899 H     1378  UNL1378     0.1146
   5512 H          17.9550    4.6326   12.3895 H     1378  UNL1378     0.1146
   5513 N          17.4675    5.5027   14.4693 N.3   1379  UNL1379    -0.3437
   5514 H          17.0258    5.7933   15.3404 H     1379  UNL1379     0.1146
   5515 H          18.1931    6.1923   14.2786 H     1379  UNL1379     0.1146
   5516 H          17.9550    4.6326   14.6782 H     1379  UNL1379     0.1146
   5517 N          17.4675    5.5027   16.7580 N.3   1380  UNL1380    -0.3437
   5518 H          17.0258    5.7933   17.6291 H     1380  UNL1380     0.1146
   5519 H          18.1931    6.1923   16.5673 H     1380  UNL1380     0.1146
   5520 H          17.9550    4.6326   16.9669 H     1380  UNL1380     0.1146
   5521 N          17.4675    5.3686   19.4241 N.3   1381  UNL1381    -0.3437
   5522 H          17.0258    5.8926   18.6700 H     1381  UNL1381     0.1146
   5523 H          18.1931    4.8031   18.9858 H     1381  UNL1381     0.1146
   5524 H          17.9550    6.0567   19.9962 H     1381  UNL1381     0.1146
   5525 N          17.5976    5.5027   21.8453 N.3   1382  UNL1382    -0.3437
   5526 H          18.5598    5.7933   21.6778 H     1382  UNL1382     0.1146
   5527 H          17.0106    6.1923   21.3781 H     1382  UNL1382     0.1146
   5528 H          17.4732    4.6326   21.3297 H     1382  UNL1382     0.1146
   5529 N          17.4675    5.7248   23.9575 N.3   1383  UNL1383    -0.3437
   5530 H          17.0258    4.8530   23.6690 H     1383  UNL1383     0.1146
   5531 H          18.1931    5.4649   24.6241 H     1383  UNL1383     0.1146
   5532 H          17.9550    6.0782   23.1354 H     1383  UNL1383     0.1146
   5533 N          17.4675    5.7248   26.2462 N.3   1384  UNL1384    -0.3437
   5534 H          17.0258    4.8530   25.9577 H     1384  UNL1384     0.1146
   5535 H          18.1931    5.4649   26.9128 H     1384  UNL1384     0.1146
   5536 H          17.9550    6.0782   25.4241 H     1384  UNL1384     0.1146
   5537 N          17.3837    5.5197   29.3203 N.3   1385  UNL1385    -0.3437
   5538 H          17.5214    4.9262   30.1370 H     1385  UNL1385     0.1146
   5539 H          17.6628    6.4577   29.6044 H     1385  UNL1385     0.1146
   5540 H          18.0734    5.2174   28.6338 H     1385  UNL1385     0.1146
   5541 N          17.4675    8.1686    1.0703 N.3   1386  UNL1386    -0.3437
   5542 H          17.0258    7.2968    0.7818 H     1386  UNL1386     0.1146
   5543 H          18.1931    7.9087    1.7369 H     1386  UNL1386     0.1146
   5544 H          17.9550    8.5220    0.2482 H     1386  UNL1386     0.1146
   5545 N          17.4675    8.1686    3.3590 N.3   1387  UNL1387    -0.3437
   5546 H          17.0258    7.2968    3.0705 H     1387  UNL1387     0.1146
   5547 H          18.1931    7.9087    4.0256 H     1387  UNL1387     0.1146
   5548 H          17.9550    8.5220    2.5369 H     1387  UNL1387     0.1146
   5549 N          17.4675    8.1686    5.6477 N.3   1388  UNL1388    -0.3437
   5550 H          17.0258    7.2968    5.3592 H     1388  UNL1388     0.1146
   5551 H          18.1931    7.9087    6.3143 H     1388  UNL1388     0.1146
   5552 H          17.9550    8.5220    4.8256 H     1388  UNL1388     0.1146
   5553 N          17.4675    8.1686    7.9365 N.3   1389  UNL1389    -0.3437
   5554 H          17.0258    7.2968    7.6479 H     1389  UNL1389     0.1146
   5555 H          18.1931    7.9087    8.6031 H     1389  UNL1389     0.1146
   5556 H          17.9550    8.5220    7.1144 H     1389  UNL1389     0.1146
   5557 N          17.4675    8.1686   10.2252 N.3   1390  UNL1390    -0.3437
   5558 H          17.0258    7.2968    9.9367 H     1390  UNL1390     0.1146
   5559 H          18.1931    7.9087   10.8918 H     1390  UNL1390     0.1146
   5560 H          17.9550    8.5220    9.4031 H     1390  UNL1390     0.1146
   5561 N          17.4675    8.1686   12.5139 N.3   1391  UNL1391    -0.3437
   5562 H          17.0258    7.2968   12.2254 H     1391  UNL1391     0.1146
   5563 H          18.1931    7.9087   13.1805 H     1391  UNL1391     0.1146
   5564 H          17.9550    8.5220   11.6918 H     1391  UNL1391     0.1146
   5565 N          17.4675    8.1686   14.8026 N.3   1392  UNL1392    -0.3437
   5566 H          17.0258    7.2968   14.5141 H     1392  UNL1392     0.1146
   5567 H          18.1931    7.9087   15.4692 H     1392  UNL1392     0.1146
   5568 H          17.9550    8.5220   13.9805 H     1392  UNL1392     0.1146
   5569 N          17.4675    8.1686   17.0913 N.3   1393  UNL1393    -0.3437
   5570 H          17.0258    7.2968   16.8028 H     1393  UNL1393     0.1146
   5571 H          18.1931    7.9087   17.7579 H     1393  UNL1393     0.1146
   5572 H          17.9550    8.5220   16.2692 H     1393  UNL1393     0.1146
   5573 N          17.4675    8.1686   19.3800 N.3   1394  UNL1394    -0.3437
   5574 H          17.0258    7.2968   19.0915 H     1394  UNL1394     0.1146
   5575 H          18.1931    7.9087   20.0466 H     1394  UNL1394     0.1146
   5576 H          17.9550    8.5220   18.5579 H     1394  UNL1394     0.1146
   5577 N          17.4675    8.1686   21.6687 N.3   1395  UNL1395    -0.3437
   5578 H          17.0258    7.2968   21.3802 H     1395  UNL1395     0.1146
   5579 H          18.1931    7.9087   22.3353 H     1395  UNL1395     0.1146
   5580 H          17.9550    8.5220   20.8466 H     1395  UNL1395     0.1146
   5581 N          17.4675    8.1686   23.9575 N.3   1396  UNL1396    -0.3437
   5582 H          17.0258    7.2968   23.6690 H     1396  UNL1396     0.1146
   5583 H          18.1931    7.9087   24.6241 H     1396  UNL1396     0.1146
   5584 H          17.9550    8.5220   23.1354 H     1396  UNL1396     0.1146
   5585 N          17.4675    8.1686   26.2462 N.3   1397  UNL1397    -0.3437
   5586 H          17.0258    7.2968   25.9577 H     1397  UNL1397     0.1146
   5587 H          18.1931    7.9087   26.9128 H     1397  UNL1397     0.1146
   5588 H          17.9550    8.5220   25.4241 H     1397  UNL1397     0.1146
   5589 N          17.3837    7.9635   29.3203 N.3   1398  UNL1398    -0.3437
   5590 H          17.5214    7.3700   30.1370 H     1398  UNL1398     0.1146
   5591 H          17.6628    8.9015   29.6044 H     1398  UNL1398     0.1146
   5592 H          18.0734    7.6612   28.6338 H     1398  UNL1398     0.1146
   5593 N          17.4675   10.6125    1.0703 N.3   1399  UNL1399    -0.3437
   5594 H          17.0258    9.7407    0.7818 H     1399  UNL1399     0.1146
   5595 H          18.1931   10.3525    1.7369 H     1399  UNL1399     0.1146
   5596 H          17.9550   10.9658    0.2482 H     1399  UNL1399     0.1146
   5597 N          17.4675   10.3903    3.0257 N.3   1400  UNL1400    -0.3437
   5598 H          17.0258   10.6809    3.8968 H     1400  UNL1400     0.1146
   5599 H          18.1931   11.0799    2.8350 H     1400  UNL1400     0.1146
   5600 H          17.9550    9.5202    3.2346 H     1400  UNL1400     0.1146
   5601 N          17.6741   10.6058    5.3090 N.3   1401  UNL1401    -0.3437
   5602 H          17.0526   10.9286    6.0492 H     1401  UNL1401     0.1146
   5603 H          18.5802   10.4534    5.7495 H     1401  UNL1401     0.1146
   5604 H          17.3344    9.6837    5.0393 H     1401  UNL1401     0.1146
   5605 N          17.4310   10.2975    7.6830 N.3   1402  UNL1402    -0.3437
   5606 H          17.5587    9.9143    8.6185 H     1402  UNL1402     0.1146
   5607 H          17.3359   11.3050    7.8027 H     1402  UNL1402     0.1146
   5608 H          18.3156   10.1547    7.1977 H     1402  UNL1402     0.1146
   5609 N          17.4675   10.6125   10.2252 N.3   1403  UNL1403    -0.3437
   5610 H          17.0258    9.7407    9.9367 H     1403  UNL1403     0.1146
   5611 H          18.1931   10.3525   10.8918 H     1403  UNL1403     0.1146
   5612 H          17.9550   10.9658    9.4031 H     1403  UNL1403     0.1146
   5613 N          17.4675   10.3903   12.1806 N.3   1404  UNL1404    -0.3437
   5614 H          17.0258   10.6809   13.0517 H     1404  UNL1404     0.1146
   5615 H          18.1931   11.0799   11.9899 H     1404  UNL1404     0.1146
   5616 H          17.9550    9.5202   12.3895 H     1404  UNL1404     0.1146
   5617 N          17.6741   10.6058   14.4638 N.3   1405  UNL1405    -0.3437
   5618 H          17.0526   10.9286   15.2040 H     1405  UNL1405     0.1146
   5619 H          18.5802   10.4534   14.9044 H     1405  UNL1405     0.1146
   5620 H          17.3344    9.6837   14.1941 H     1405  UNL1405     0.1146
   5621 N          17.4310   10.2975   16.8378 N.3   1406  UNL1406    -0.3437
   5622 H          17.5587    9.9143   17.7733 H     1406  UNL1406     0.1146
   5623 H          17.3359   11.3050   16.9575 H     1406  UNL1406     0.1146
   5624 H          18.3156   10.1547   16.3526 H     1406  UNL1406     0.1146
   5625 N          17.4675   10.6125   19.3800 N.3   1407  UNL1407    -0.3437
   5626 H          17.0258    9.7407   19.0915 H     1407  UNL1407     0.1146
   5627 H          18.1931   10.3525   20.0466 H     1407  UNL1407     0.1146
   5628 H          17.9550   10.9658   18.5579 H     1407  UNL1407     0.1146
   5629 N          17.4675   10.3903   21.3354 N.3   1408  UNL1408    -0.3437
   5630 H          17.0258   10.6809   22.2065 H     1408  UNL1408     0.1146
   5631 H          18.1931   11.0799   21.1447 H     1408  UNL1408     0.1146
   5632 H          17.9550    9.5202   21.5443 H     1408  UNL1408     0.1146
   5633 N          17.4310   10.2975   23.7040 N.3   1409  UNL1409    -0.3437
   5634 H          17.5587    9.9143   24.6395 H     1409  UNL1409     0.1146
   5635 H          17.3359   11.3050   23.8237 H     1409  UNL1409     0.1146
   5636 H          18.3156   10.1547   23.2187 H     1409  UNL1409     0.1146
   5637 N          17.4675   10.6125   26.2462 N.3   1410  UNL1410    -0.3437
   5638 H          17.0258    9.7407   25.9577 H     1410  UNL1410     0.1146
   5639 H          18.1931   10.3525   26.9128 H     1410  UNL1410     0.1146
   5640 H          17.9550   10.9658   25.4241 H     1410  UNL1410     0.1146
   5641 N          17.3837   10.4074   29.3203 N.3   1411  UNL1411    -0.3437
   5642 H          17.5214    9.8138   30.1370 H     1411  UNL1411     0.1146
   5643 H          17.6628   11.3453   29.6044 H     1411  UNL1411     0.1146
   5644 H          18.0734   10.1050   28.6338 H     1411  UNL1411     0.1146
   5645 N          17.4675   13.0563    1.0703 N.3   1412  UNL1412    -0.3437
   5646 H          17.0258   12.1845    0.7818 H     1412  UNL1412     0.1146
   5647 H          18.1931   12.7963    1.7369 H     1412  UNL1412     0.1146
   5648 H          17.9550   13.4096    0.2482 H     1412  UNL1412     0.1146
   5649 N          17.4310   12.7413    3.1055 N.3   1413  UNL1413    -0.3437
   5650 H          17.5587   12.3581    4.0410 H     1413  UNL1413     0.1146
   5651 H          17.3359   13.7488    3.2252 H     1413  UNL1413     0.1146
   5652 H          18.3156   12.5985    2.6203 H     1413  UNL1413     0.1146
   5653 N          17.4310   12.7413    5.3942 N.3   1414  UNL1414    -0.3437
   5654 H          17.5587   12.3581    6.3298 H     1414  UNL1414     0.1146
   5655 H          17.3359   13.7488    5.5140 H     1414  UNL1414     0.1146
   5656 H          18.3156   12.5985    4.9090 H     1414  UNL1414     0.1146
   5657 N          17.4675   13.0563    7.9365 N.3   1415  UNL1415    -0.3437
   5658 H          17.0258   12.1845    7.6479 H     1415  UNL1415     0.1146
   5659 H          18.1931   12.7963    8.6031 H     1415  UNL1415     0.1146
   5660 H          17.9550   13.4096    7.1144 H     1415  UNL1415     0.1146
   5661 N          17.4675   13.0563   10.2252 N.3   1416  UNL1416    -0.3437
   5662 H          17.0258   12.1845    9.9367 H     1416  UNL1416     0.1146
   5663 H          18.1931   12.7963   10.8918 H     1416  UNL1416     0.1146
   5664 H          17.9550   13.4096    9.4031 H     1416  UNL1416     0.1146
   5665 N          17.4675   12.8341   12.1806 N.3   1417  UNL1417    -0.3437
   5666 H          17.0258   13.1247   13.0517 H     1417  UNL1417     0.1146
   5667 H          18.1931   13.5237   11.9899 H     1417  UNL1417     0.1146
   5668 H          17.9550   11.9640   12.3895 H     1417  UNL1417     0.1146
   5669 N          17.6741   13.0496   14.4638 N.3   1418  UNL1418    -0.3437
   5670 H          17.0526   13.3724   15.2040 H     1418  UNL1418     0.1146
   5671 H          18.5802   12.8972   14.9044 H     1418  UNL1418     0.1146
   5672 H          17.3344   12.1275   14.1941 H     1418  UNL1418     0.1146
   5673 N          17.6741   13.0496   16.7525 N.3   1419  UNL1419    -0.3437
   5674 H          17.0526   13.3724   17.4928 H     1419  UNL1419     0.1146
   5675 H          18.5802   12.8972   17.1931 H     1419  UNL1419     0.1146
   5676 H          17.3344   12.1275   16.4829 H     1419  UNL1419     0.1146
   5677 N          17.6741   13.0496   19.0413 N.3   1420  UNL1420    -0.3437
   5678 H          17.0526   13.3724   19.7815 H     1420  UNL1420     0.1146
   5679 H          18.5802   12.8972   19.4818 H     1420  UNL1420     0.1146
   5680 H          17.3344   12.1275   18.7716 H     1420  UNL1420     0.1146
   5681 N          17.4675   12.8341   21.3354 N.3   1421  UNL1421    -0.3437
   5682 H          17.0258   13.1247   22.2065 H     1421  UNL1421     0.1146
   5683 H          18.1931   13.5237   21.1447 H     1421  UNL1421     0.1146
   5684 H          17.9550   11.9640   21.5443 H     1421  UNL1421     0.1146
   5685 N          17.6741   13.0496   23.6187 N.3   1422  UNL1422    -0.3437
   5686 H          17.0526   13.3724   24.3589 H     1422  UNL1422     0.1146
   5687 H          18.5802   12.8972   24.0592 H     1422  UNL1422     0.1146
   5688 H          17.3344   12.1275   23.3490 H     1422  UNL1422     0.1146
   5689 N          17.4310   12.7413   25.9927 N.3   1423  UNL1423    -0.3437
   5690 H          17.5587   12.3581   26.9282 H     1423  UNL1423     0.1146
   5691 H          17.3359   13.7488   26.1124 H     1423  UNL1423     0.1146
   5692 H          18.3156   12.5985   25.5074 H     1423  UNL1423     0.1146
   5693 N          17.3837   12.8512   29.3203 N.3   1424  UNL1424    -0.3437
   5694 H          17.5214   12.2576   30.1370 H     1424  UNL1424     0.1146
   5695 H          17.6628   13.7891   29.6044 H     1424  UNL1424     0.1146
   5696 H          18.0734   12.5488   28.6338 H     1424  UNL1424     0.1146
   5697 N          17.4675   15.5001    1.3590 N.3   1425  UNL1425    -0.3437
   5698 H          17.0258   14.6283    1.0705 H     1425  UNL1425     0.1146
   5699 H          18.1931   15.2401    2.0256 H     1425  UNL1425     0.1146
   5700 H          17.9550   15.8534    0.5369 H     1425  UNL1425     0.1146
   5701 N          17.4675   15.5001    3.6477 N.3   1426  UNL1426    -0.3437
   5702 H          17.0258   14.6283    3.3592 H     1426  UNL1426     0.1146
   5703 H          18.1931   15.2401    4.3143 H     1426  UNL1426     0.1146
   5704 H          17.9550   15.8534    2.8256 H     1426  UNL1426     0.1146
   5705 N          17.4120   15.4641    5.8492 N.3   1427  UNL1427    -0.3437
   5706 H          17.8281   15.2455    6.7534 H     1427  UNL1427     0.1146
   5707 H          18.1360   15.9428    5.3152 H     1427  UNL1427     0.1146
   5708 H          17.2651   14.5695    5.3840 H     1427  UNL1427     0.1146
   5709 N          17.7978   15.1674    7.8918 N.3   1428  UNL1428    -0.3437
   5710 H          17.8293   14.6397    8.7629 H     1428  UNL1428     0.1146
   5711 H          16.8111   15.3361    7.7011 H     1428  UNL1428     0.1146
   5712 H          18.2031   16.0787    8.1007 H     1428  UNL1428     0.1146
   5713 N          17.4675   15.5001   10.5139 N.3   1429  UNL1429    -0.3437
   5714 H          17.0258   14.6283   10.2254 H     1429  UNL1429     0.1146
   5715 H          18.1931   15.2401   11.1805 H     1429  UNL1429     0.1146
   5716 H          17.9550   15.8534    9.6918 H     1429  UNL1429     0.1146
   5717 N          17.4675   15.5001   12.8026 N.3   1430  UNL1430    -0.3437
   5718 H          17.0258   14.6283   12.5141 H     1430  UNL1430     0.1146
   5719 H          18.1931   15.2401   13.4692 H     1430  UNL1430     0.1146
   5720 H          17.9550   15.8534   11.9805 H     1430  UNL1430     0.1146
   5721 N          17.4675   15.5001   15.0913 N.3   1431  UNL1431    -0.3437
   5722 H          17.0258   14.6283   14.8028 H     1431  UNL1431     0.1146
   5723 H          18.1931   15.2401   15.7579 H     1431  UNL1431     0.1146
   5724 H          17.9550   15.8534   14.2692 H     1431  UNL1431     0.1146
   5725 N          17.4675   15.5001   17.3800 N.3   1432  UNL1432    -0.3437
   5726 H          17.0258   14.6283   17.0915 H     1432  UNL1432     0.1146
   5727 H          18.1931   15.2401   18.0466 H     1432  UNL1432     0.1146
   5728 H          17.9550   15.8534   16.5579 H     1432  UNL1432     0.1146
   5729 N          17.4675   15.5001   19.6687 N.3   1433  UNL1433    -0.3437
   5730 H          17.0258   14.6283   19.3802 H     1433  UNL1433     0.1146
   5731 H          18.1931   15.2401   20.3353 H     1433  UNL1433     0.1146
   5732 H          17.9550   15.8534   18.8466 H     1433  UNL1433     0.1146
   5733 N          17.4675   15.5001   21.9575 N.3   1434  UNL1434    -0.3437
   5734 H          17.0258   14.6283   21.6690 H     1434  UNL1434     0.1146
   5735 H          18.1931   15.2401   22.6241 H     1434  UNL1434     0.1146
   5736 H          17.9550   15.8534   21.1354 H     1434  UNL1434     0.1146
   5737 N          17.4675   15.5001   24.2462 N.3   1435  UNL1435    -0.3437
   5738 H          17.0258   14.6283   23.9577 H     1435  UNL1435     0.1146
   5739 H          18.1931   15.2401   24.9128 H     1435  UNL1435     0.1146
   5740 H          17.9550   15.8534   23.4241 H     1435  UNL1435     0.1146
   5741 N          17.4675   15.5001   26.5349 N.3   1436  UNL1436    -0.3437
   5742 H          17.0258   14.6283   26.2464 H     1436  UNL1436     0.1146
   5743 H          18.1931   15.2401   27.2015 H     1436  UNL1436     0.1146
   5744 H          17.9550   15.8534   25.7128 H     1436  UNL1436     0.1146
   5745 N          17.4675   17.7217    0.7370 N.3   1437  UNL1437    -0.3437
   5746 H          17.0258   18.0123    1.6081 H     1437  UNL1437     0.1146
   5747 H          18.1931   18.4114    0.5463 H     1437  UNL1437     0.1146
   5748 H          17.9550   16.8517    0.9459 H     1437  UNL1437     0.1146
   5749 N          17.4675   17.7217    3.0257 N.3   1438  UNL1438    -0.3437
   5750 H          17.0258   18.0123    3.8968 H     1438  UNL1438     0.1146
   5751 H          18.1931   18.4114    2.8350 H     1438  UNL1438     0.1146
   5752 H          17.9550   16.8517    3.2346 H     1438  UNL1438     0.1146
   5753 N          17.4675   17.7217    5.3144 N.3   1439  UNL1439    -0.3437
   5754 H          17.0258   18.0123    6.1855 H     1439  UNL1439     0.1146
   5755 H          18.1931   18.4114    5.1237 H     1439  UNL1439     0.1146
   5756 H          17.9550   16.8517    5.5233 H     1439  UNL1439     0.1146
   5757 N          17.4675   17.7217    7.6031 N.3   1440  UNL1440    -0.3437
   5758 H          17.0258   18.0123    8.4742 H     1440  UNL1440     0.1146
   5759 H          18.1931   18.4114    7.4124 H     1440  UNL1440     0.1146
   5760 H          17.9550   16.8517    7.8120 H     1440  UNL1440     0.1146
   5761 N          17.4675   17.7217    9.8918 N.3   1441  UNL1441    -0.3437
   5762 H          17.0258   18.0123   10.7629 H     1441  UNL1441     0.1146
   5763 H          18.1931   18.4114    9.7011 H     1441  UNL1441     0.1146
   5764 H          17.9550   16.8517   10.1007 H     1441  UNL1441     0.1146
   5765 N          17.4675   17.7217   12.1806 N.3   1442  UNL1442    -0.3437
   5766 H          17.0258   18.0123   13.0517 H     1442  UNL1442     0.1146
   5767 H          18.1931   18.4114   11.9899 H     1442  UNL1442     0.1146
   5768 H          17.9550   16.8517   12.3895 H     1442  UNL1442     0.1146
   5769 N          17.6741   17.9372   14.4638 N.3   1443  UNL1443    -0.3437
   5770 H          17.0526   18.2600   15.2040 H     1443  UNL1443     0.1146
   5771 H          18.5802   17.7848   14.9044 H     1443  UNL1443     0.1146
   5772 H          17.3344   17.0151   14.1941 H     1443  UNL1443     0.1146
   5773 N          17.4675   17.7217   16.7580 N.3   1444  UNL1444    -0.3437
   5774 H          17.0258   18.0123   17.6291 H     1444  UNL1444     0.1146
   5775 H          18.1931   18.4114   16.5673 H     1444  UNL1444     0.1146
   5776 H          17.9550   16.8517   16.9669 H     1444  UNL1444     0.1146
   5777 N          17.4675   17.7217   19.0467 N.3   1445  UNL1445    -0.3437
   5778 H          17.0258   18.0123   19.9178 H     1445  UNL1445     0.1146
   5779 H          18.1931   18.4114   18.8560 H     1445  UNL1445     0.1146
   5780 H          17.9550   16.8517   19.2556 H     1445  UNL1445     0.1146
   5781 N          17.4675   17.7217   21.3354 N.3   1446  UNL1446    -0.3437
   5782 H          17.0258   18.0123   22.2065 H     1446  UNL1446     0.1146
   5783 H          18.1931   18.4114   21.1447 H     1446  UNL1446     0.1146
   5784 H          17.9550   16.8517   21.5443 H     1446  UNL1446     0.1146
   5785 N          17.4675   17.7217   23.6241 N.3   1447  UNL1447    -0.3437
   5786 H          17.0258   18.0123   24.4952 H     1447  UNL1447     0.1146
   5787 H          18.1931   18.4114   23.4334 H     1447  UNL1447     0.1146
   5788 H          17.9550   16.8517   23.8330 H     1447  UNL1447     0.1146
   5789 N          17.4675   17.7217   25.9128 N.3   1448  UNL1448    -0.3437
   5790 H          17.0258   18.0123   26.7840 H     1448  UNL1448     0.1146
   5791 H          18.1931   18.4114   25.7221 H     1448  UNL1448     0.1146
   5792 H          17.9550   16.8517   26.1217 H     1448  UNL1448     0.1146
   5793 N          17.3837   17.7388   29.3203 N.3   1449  UNL1449    -0.3437
   5794 H          17.5214   17.1452   30.1370 H     1449  UNL1449     0.1146
   5795 H          17.6628   18.6767   29.6044 H     1449  UNL1449     0.1146
   5796 H          18.0734   17.4364   28.6338 H     1449  UNL1449     0.1146
   5797 N          17.4675   20.3877    1.0703 N.3   1450  UNL1450    -0.3437
   5798 H          17.0258   19.5159    0.7818 H     1450  UNL1450     0.1146
   5799 H          18.1931   20.1278    1.7369 H     1450  UNL1450     0.1146
   5800 H          17.9550   20.7410    0.2482 H     1450  UNL1450     0.1146
   5801 N          17.4675   20.1656    3.0257 N.3   1451  UNL1451    -0.3437
   5802 H          17.0258   20.4562    3.8968 H     1451  UNL1451     0.1146
   5803 H          18.1931   20.8552    2.8350 H     1451  UNL1451     0.1146
   5804 H          17.9550   19.2955    3.2346 H     1451  UNL1451     0.1146
   5805 N          17.4675   20.0314    5.6918 N.3   1452  UNL1452    -0.3437
   5806 H          17.0258   20.5554    4.9377 H     1452  UNL1452     0.1146
   5807 H          18.1931   19.4660    5.2535 H     1452  UNL1452     0.1146
   5808 H          17.9550   20.7195    6.2639 H     1452  UNL1452     0.1146
   5809 N          17.4675   20.3877    7.9365 N.3   1453  UNL1453    -0.3437
   5810 H          17.0258   19.5159    7.6479 H     1453  UNL1453     0.1146
   5811 H          18.1931   20.1278    8.6031 H     1453  UNL1453     0.1146
   5812 H          17.9550   20.7410    7.1144 H     1453  UNL1453     0.1146
   5813 N          17.4675   20.3877   10.2252 N.3   1454  UNL1454    -0.3437
   5814 H          17.0258   19.5159    9.9367 H     1454  UNL1454     0.1146
   5815 H          18.1931   20.1278   10.8918 H     1454  UNL1454     0.1146
   5816 H          17.9550   20.7410    9.4031 H     1454  UNL1454     0.1146
   5817 N          17.4675   20.1656   12.1806 N.3   1455  UNL1455    -0.3437
   5818 H          17.0258   20.4562   13.0517 H     1455  UNL1455     0.1146
   5819 H          18.1931   20.8552   11.9899 H     1455  UNL1455     0.1146
   5820 H          17.9550   19.2955   12.3895 H     1455  UNL1455     0.1146
   5821 N          17.4310   20.0727   14.5491 N.3   1456  UNL1456    -0.3437
   5822 H          17.5587   19.6895   15.4846 H     1456  UNL1456     0.1146
   5823 H          17.3359   21.0802   14.6688 H     1456  UNL1456     0.1146
   5824 H          18.3156   19.9299   14.0639 H     1456  UNL1456     0.1146
   5825 N          17.4675   20.3877   17.0913 N.3   1457  UNL1457    -0.3437
   5826 H          17.0258   19.5159   16.8028 H     1457  UNL1457     0.1146
   5827 H          18.1931   20.1278   17.7579 H     1457  UNL1457     0.1146
   5828 H          17.9550   20.7410   16.2692 H     1457  UNL1457     0.1146
   5829 N          17.4675   20.3877   19.3800 N.3   1458  UNL1458    -0.3437
   5830 H          17.0258   19.5159   19.0915 H     1458  UNL1458     0.1146
   5831 H          18.1931   20.1278   20.0466 H     1458  UNL1458     0.1146
   5832 H          17.9550   20.7410   18.5579 H     1458  UNL1458     0.1146
   5833 N          17.4310   20.0727   21.4152 N.3   1459  UNL1459    -0.3437
   5834 H          17.5587   19.6895   22.3508 H     1459  UNL1459     0.1146
   5835 H          17.3359   21.0802   21.5350 H     1459  UNL1459     0.1146
   5836 H          18.3156   19.9299   20.9300 H     1459  UNL1459     0.1146
   5837 N          17.4310   20.0727   23.7040 N.3   1460  UNL1460    -0.3437
   5838 H          17.5587   19.6895   24.6395 H     1460  UNL1460     0.1146
   5839 H          17.3359   21.0802   23.8237 H     1460  UNL1460     0.1146
   5840 H          18.3156   19.9299   23.2187 H     1460  UNL1460     0.1146
   5841 N          17.4675   20.0314   26.2903 N.3   1461  UNL1461    -0.3437
   5842 H          17.0258   20.5554   25.5361 H     1461  UNL1461     0.1146
   5843 H          18.1931   19.4660   25.8519 H     1461  UNL1461     0.1146
   5844 H          17.9550   20.7195   26.8623 H     1461  UNL1461     0.1146
   5845 N          17.3837   20.1826   29.3203 N.3   1462  UNL1462    -0.3437
   5846 H          17.5214   19.5890   30.1370 H     1462  UNL1462     0.1146
   5847 H          17.6628   21.1205   29.6044 H     1462  UNL1462     0.1146
   5848 H          18.0734   19.8802   28.6338 H     1462  UNL1462     0.1146
   5849 N          17.4675   22.8315    1.0703 N.3   1463  UNL1463    -0.3437
   5850 H          17.0258   21.9597    0.7818 H     1463  UNL1463     0.1146
   5851 H          18.1931   22.5716    1.7369 H     1463  UNL1463     0.1146
   5852 H          17.9550   23.1848    0.2482 H     1463  UNL1463     0.1146
   5853 N          17.4310   22.5165    3.1055 N.3   1464  UNL1464    -0.3437
   5854 H          17.5587   22.1333    4.0410 H     1464  UNL1464     0.1146
   5855 H          17.3359   23.5240    3.2252 H     1464  UNL1464     0.1146
   5856 H          18.3156   22.3737    2.6203 H     1464  UNL1464     0.1146
   5857 N          17.4310   22.5165    5.3942 N.3   1465  UNL1465    -0.3437
   5858 H          17.5587   22.1333    6.3298 H     1465  UNL1465     0.1146
   5859 H          17.3359   23.5240    5.5140 H     1465  UNL1465     0.1146
   5860 H          18.3156   22.3737    4.9090 H     1465  UNL1465     0.1146
   5861 N          17.4675   22.8315    7.9365 N.3   1466  UNL1466    -0.3437
   5862 H          17.0258   21.9597    7.6479 H     1466  UNL1466     0.1146
   5863 H          18.1931   22.5716    8.6031 H     1466  UNL1466     0.1146
   5864 H          17.9550   23.1848    7.1144 H     1466  UNL1466     0.1146
   5865 N          17.4675   22.8315   10.2252 N.3   1467  UNL1467    -0.3437
   5866 H          17.0258   21.9597    9.9367 H     1467  UNL1467     0.1146
   5867 H          18.1931   22.5716   10.8918 H     1467  UNL1467     0.1146
   5868 H          17.9550   23.1848    9.4031 H     1467  UNL1467     0.1146
   5869 N          17.4675   22.8315   12.5139 N.3   1468  UNL1468    -0.3437
   5870 H          17.0258   21.9597   12.2254 H     1468  UNL1468     0.1146
   5871 H          18.1931   22.5716   13.1805 H     1468  UNL1468     0.1146
   5872 H          17.9550   23.1848   11.6918 H     1468  UNL1468     0.1146
   5873 N          17.4675   22.8315   14.8026 N.3   1469  UNL1469    -0.3437
   5874 H          17.0258   21.9597   14.5141 H     1469  UNL1469     0.1146
   5875 H          18.1931   22.5716   15.4692 H     1469  UNL1469     0.1146
   5876 H          17.9550   23.1848   13.9805 H     1469  UNL1469     0.1146
   5877 N          17.4675   22.8315   17.0913 N.3   1470  UNL1470    -0.3437
   5878 H          17.0258   21.9597   16.8028 H     1470  UNL1470     0.1146
   5879 H          18.1931   22.5716   17.7579 H     1470  UNL1470     0.1146
   5880 H          17.9550   23.1848   16.2692 H     1470  UNL1470     0.1146
   5881 N          17.4675   22.8315   19.3800 N.3   1471  UNL1471    -0.3437
   5882 H          17.0258   21.9597   19.0915 H     1471  UNL1471     0.1146
   5883 H          18.1931   22.5716   20.0466 H     1471  UNL1471     0.1146
   5884 H          17.9550   23.1848   18.5579 H     1471  UNL1471     0.1146
   5885 N          17.4675   22.6094   21.3354 N.3   1472  UNL1472    -0.3437
   5886 H          17.0258   22.9000   22.2065 H     1472  UNL1472     0.1146
   5887 H          18.1931   23.2990   21.1447 H     1472  UNL1472     0.1146
   5888 H          17.9550   21.7393   21.5443 H     1472  UNL1472     0.1146
   5889 N          17.6741   22.8248   23.6187 N.3   1473  UNL1473    -0.3437
   5890 H          17.0526   23.1476   24.3589 H     1473  UNL1473     0.1146
   5891 H          18.5802   22.6724   24.0592 H     1473  UNL1473     0.1146
   5892 H          17.3344   21.9027   23.3490 H     1473  UNL1473     0.1146
   5893 N          17.4310   22.5165   25.9927 N.3   1474  UNL1474    -0.3437
   5894 H          17.5587   22.1333   26.9282 H     1474  UNL1474     0.1146
   5895 H          17.3359   23.5240   26.1124 H     1474  UNL1474     0.1146
   5896 H          18.3156   22.3737   25.5074 H     1474  UNL1474     0.1146
   5897 N          17.3837   22.6264   29.3203 N.3   1475  UNL1475    -0.3437
   5898 H          17.5214   22.0328   30.1370 H     1475  UNL1475     0.1146
   5899 H          17.6628   23.5643   29.6044 H     1475  UNL1475     0.1146
   5900 H          18.0734   22.3240   28.6338 H     1475  UNL1475     0.1146
   5901 N          17.4675   24.9191    1.1144 N.3   1476  UNL1476    -0.3437
   5902 H          17.0258   25.4430    0.3603 H     1476  UNL1476     0.1146
   5903 H          18.1931   24.3536    0.6761 H     1476  UNL1476     0.1146
   5904 H          17.9550   25.6071    1.6865 H     1476  UNL1476     0.1146
   5905 N          17.4310   24.9603    3.1055 N.3   1477  UNL1477    -0.3437
   5906 H          17.5587   24.5771    4.0410 H     1477  UNL1477     0.1146
   5907 H          17.3359   25.9678    3.2252 H     1477  UNL1477     0.1146
   5908 H          18.3156   24.8175    2.6203 H     1477  UNL1477     0.1146
   5909 N          17.4675   24.9191    5.6918 N.3   1478  UNL1478    -0.3437
   5910 H          17.0258   25.4430    4.9377 H     1478  UNL1478     0.1146
   5911 H          18.1931   24.3536    5.2535 H     1478  UNL1478     0.1146
   5912 H          17.9550   25.6071    6.2639 H     1478  UNL1478     0.1146
   5913 N          17.4675   25.2753    7.9365 N.3   1479  UNL1479    -0.3437
   5914 H          17.0258   24.4035    7.6479 H     1479  UNL1479     0.1146
   5915 H          18.1931   25.0154    8.6031 H     1479  UNL1479     0.1146
   5916 H          17.9550   25.6286    7.1144 H     1479  UNL1479     0.1146
   5917 N          17.4675   25.2753   10.2252 N.3   1480  UNL1480    -0.3437
   5918 H          17.0258   24.4035    9.9367 H     1480  UNL1480     0.1146
   5919 H          18.1931   25.0154   10.8918 H     1480  UNL1480     0.1146
   5920 H          17.9550   25.6286    9.4031 H     1480  UNL1480     0.1146
   5921 N          17.4675   25.2753   12.5139 N.3   1481  UNL1481    -0.3437
   5922 H          17.0258   24.4035   12.2254 H     1481  UNL1481     0.1146
   5923 H          18.1931   25.0154   13.1805 H     1481  UNL1481     0.1146
   5924 H          17.9550   25.6286   11.6918 H     1481  UNL1481     0.1146
   5925 N          17.4675   25.0532   14.4693 N.3   1482  UNL1482    -0.3437
   5926 H          17.0258   25.3438   15.3404 H     1482  UNL1482     0.1146
   5927 H          18.1931   25.7428   14.2786 H     1482  UNL1482     0.1146
   5928 H          17.9550   24.1831   14.6782 H     1482  UNL1482     0.1146
   5929 N          17.4675   24.9191   17.1354 N.3   1483  UNL1483    -0.3437
   5930 H          17.0258   25.4430   16.3813 H     1483  UNL1483     0.1146
   5931 H          18.1931   24.3536   16.6971 H     1483  UNL1483     0.1146
   5932 H          17.9550   25.6071   17.7075 H     1483  UNL1483     0.1146
   5933 N          17.5976   25.0532   19.5566 N.3   1484  UNL1484    -0.3437
   5934 H          18.5598   25.3438   19.3891 H     1484  UNL1484     0.1146
   5935 H          17.0106   25.7428   19.0894 H     1484  UNL1484     0.1146
   5936 H          17.4732   24.1831   19.0410 H     1484  UNL1484     0.1146
   5937 N          17.4675   25.0532   21.3354 N.3   1485  UNL1485    -0.3437
   5938 H          17.0258   25.3438   22.2065 H     1485  UNL1485     0.1146
   5939 H          18.1931   25.7428   21.1447 H     1485  UNL1485     0.1146
   5940 H          17.9550   24.1831   21.5443 H     1485  UNL1485     0.1146
   5941 N          17.6741   25.2686   23.6187 N.3   1486  UNL1486    -0.3437
   5942 H          17.0526   25.5914   24.3589 H     1486  UNL1486     0.1146
   5943 H          18.5802   25.1162   24.0592 H     1486  UNL1486     0.1146
   5944 H          17.3344   24.3465   23.3490 H     1486  UNL1486     0.1146
   5945 N          17.6741   25.2686   25.9074 N.3   1487  UNL1487    -0.3437
   5946 H          17.0526   25.5914   26.6476 H     1487  UNL1487     0.1146
   5947 H          18.5802   25.1162   26.3480 H     1487  UNL1487     0.1146
   5948 H          17.3344   24.3465   25.6377 H     1487  UNL1487     0.1146
   5949 N          17.3837   25.0702   29.3203 N.3   1488  UNL1488    -0.3437
   5950 H          17.5214   24.4766   30.1370 H     1488  UNL1488     0.1146
   5951 H          17.6628   26.0081   29.6044 H     1488  UNL1488     0.1146
   5952 H          18.0734   24.7678   28.6338 H     1488  UNL1488     0.1146
   5953 N          17.4675   27.4970    0.7370 N.3   1489  UNL1489    -0.3437
   5954 H          17.0258   27.7876    1.6081 H     1489  UNL1489     0.1146
   5955 H          18.1931   28.1866    0.5463 H     1489  UNL1489     0.1146
   5956 H          17.9550   26.6269    0.9459 H     1489  UNL1489     0.1146
   5957 N          17.4675   27.4970    3.0257 N.3   1490  UNL1490    -0.3437
   5958 H          17.0258   27.7876    3.8968 H     1490  UNL1490     0.1146
   5959 H          18.1931   28.1866    2.8350 H     1490  UNL1490     0.1146
   5960 H          17.9550   26.6269    3.2346 H     1490  UNL1490     0.1146
   5961 N          17.4675   27.4970    5.3144 N.3   1491  UNL1491    -0.3437
   5962 H          17.0258   27.7876    6.1855 H     1491  UNL1491     0.1146
   5963 H          18.1931   28.1866    5.1237 H     1491  UNL1491     0.1146
   5964 H          17.9550   26.6269    5.5233 H     1491  UNL1491     0.1146
   5965 N          17.4675   27.4970    7.6031 N.3   1492  UNL1492    -0.3437
   5966 H          17.0258   27.7876    8.4742 H     1492  UNL1492     0.1146
   5967 H          18.1931   28.1866    7.4124 H     1492  UNL1492     0.1146
   5968 H          17.9550   26.6269    7.8120 H     1492  UNL1492     0.1146
   5969 N          17.4675   27.4970    9.8918 N.3   1493  UNL1493    -0.3437
   5970 H          17.0258   27.7876   10.7629 H     1493  UNL1493     0.1146
   5971 H          18.1931   28.1866    9.7011 H     1493  UNL1493     0.1146
   5972 H          17.9550   26.6269   10.1007 H     1493  UNL1493     0.1146
   5973 N          17.4675   27.4970   12.1806 N.3   1494  UNL1494    -0.3437
   5974 H          17.0258   27.7876   13.0517 H     1494  UNL1494     0.1146
   5975 H          18.1931   28.1866   11.9899 H     1494  UNL1494     0.1146
   5976 H          17.9550   26.6269   12.3895 H     1494  UNL1494     0.1146
   5977 N          17.4675   27.3629   14.8467 N.3   1495  UNL1495    -0.3437
   5978 H          17.0258   27.8868   14.0926 H     1495  UNL1495     0.1146
   5979 H          18.1931   26.7974   14.4084 H     1495  UNL1495     0.1146
   5980 H          17.9550   28.0509   15.4188 H     1495  UNL1495     0.1146
   5981 N          17.4675   27.7191   17.0913 N.3   1496  UNL1496    -0.3437
   5982 H          17.0258   26.8473   16.8028 H     1496  UNL1496     0.1146
   5983 H          18.1931   27.4592   17.7579 H     1496  UNL1496     0.1146
   5984 H          17.9550   28.0724   16.2692 H     1496  UNL1496     0.1146
   5985 N          17.4675   27.7191   19.3800 N.3   1497  UNL1497    -0.3437
   5986 H          17.0258   26.8473   19.0915 H     1497  UNL1497     0.1146
   5987 H          18.1931   27.4592   20.0466 H     1497  UNL1497     0.1146
   5988 H          17.9550   28.0724   18.5579 H     1497  UNL1497     0.1146
   5989 N          17.4675   27.7191   21.6687 N.3   1498  UNL1498    -0.3437
   5990 H          17.0258   26.8473   21.3802 H     1498  UNL1498     0.1146
   5991 H          18.1931   27.4592   22.3353 H     1498  UNL1498     0.1146
   5992 H          17.9550   28.0724   20.8466 H     1498  UNL1498     0.1146
   5993 N          17.4675   27.4970   23.6241 N.3   1499  UNL1499    -0.3437
   5994 H          17.0258   27.7876   24.4952 H     1499  UNL1499     0.1146
   5995 H          18.1931   28.1866   23.4334 H     1499  UNL1499     0.1146
   5996 H          17.9550   26.6269   23.8330 H     1499  UNL1499     0.1146
   5997 N          17.4675   27.4970   25.9128 N.3   1500  UNL1500    -0.3437
   5998 H          17.0258   27.7876   26.7840 H     1500  UNL1500     0.1146
   5999 H          18.1931   28.1866   25.7221 H     1500  UNL1500     0.1146
   6000 H          17.9550   26.6269   26.1217 H     1500  UNL1500     0.1146
   6001 N          17.3837   27.5140   29.3203 N.3   1501  UNL1501    -0.3437
   6002 H          17.5214   26.9204   30.1370 H     1501  UNL1501     0.1146
   6003 H          17.6628   28.4519   29.6044 H     1501  UNL1501     0.1146
   6004 H          18.0734   27.2116   28.6338 H     1501  UNL1501     0.1146
   6005 N          17.4675   30.9408    0.7370 N.3   1502  UNL1502    -0.3437
   6006 H          17.0258   31.2314    1.6081 H     1502  UNL1502     0.1146
   6007 H          18.1931   31.6304    0.5463 H     1502  UNL1502     0.1146
   6008 H          17.9550   30.0707    0.9459 H     1502  UNL1502     0.1146
   6009 N          17.4675   30.9408    3.0257 N.3   1503  UNL1503    -0.3437
   6010 H          17.0258   31.2314    3.8968 H     1503  UNL1503     0.1146
   6011 H          18.1931   31.6304    2.8350 H     1503  UNL1503     0.1146
   6012 H          17.9550   30.0707    3.2346 H     1503  UNL1503     0.1146
   6013 N          17.4675   30.9408    5.3144 N.3   1504  UNL1504    -0.3437
   6014 H          17.0258   31.2314    6.1855 H     1504  UNL1504     0.1146
   6015 H          18.1931   31.6304    5.1237 H     1504  UNL1504     0.1146
   6016 H          17.9550   30.0707    5.5233 H     1504  UNL1504     0.1146
   6017 N          17.6573   30.7107    7.6806 N.3   1505  UNL1505    -0.3437
   6018 H          16.7228   31.0854    7.8375 H     1505  UNL1505     0.1146
   6019 H          18.1712   31.4367    7.1833 H     1505  UNL1505     0.1146
   6020 H          18.0899   30.6405    8.6005 H     1505  UNL1505     0.1146
   6021 N          17.4675   30.9408    9.8918 N.3   1506  UNL1506    -0.3437
   6022 H          17.0258   31.2314   10.7629 H     1506  UNL1506     0.1146
   6023 H          18.1931   31.6304    9.7011 H     1506  UNL1506     0.1146
   6024 H          17.9550   30.0707   10.1007 H     1506  UNL1506     0.1146
   6025 N          17.4675   30.9408   12.1806 N.3   1507  UNL1507    -0.3437
   6026 H          17.0258   31.2314   13.0517 H     1507  UNL1507     0.1146
   6027 H          18.1931   31.6304   11.9899 H     1507  UNL1507     0.1146
   6028 H          17.9550   30.0707   12.3895 H     1507  UNL1507     0.1146
   6029 N          17.4675   29.9408   14.4693 N.3   1508  UNL1508    -0.3437
   6030 H          17.0258   30.2314   15.3404 H     1508  UNL1508     0.1146
   6031 H          18.1931   30.6304   14.2786 H     1508  UNL1508     0.1146
   6032 H          17.9550   29.0707   14.6782 H     1508  UNL1508     0.1146
   6033 N          17.4675   30.9408   16.7580 N.3   1509  UNL1509    -0.3437
   6034 H          17.0258   31.2314   17.6291 H     1509  UNL1509     0.1146
   6035 H          18.1931   31.6304   16.5673 H     1509  UNL1509     0.1146
   6036 H          17.9550   30.0707   16.9669 H     1509  UNL1509     0.1146
   6037 N          17.4675   30.9408   19.0467 N.3   1510  UNL1510    -0.3437
   6038 H          17.0258   31.2314   19.9178 H     1510  UNL1510     0.1146
   6039 H          18.1931   31.6304   18.8560 H     1510  UNL1510     0.1146
   6040 H          17.9550   30.0707   19.2556 H     1510  UNL1510     0.1146
   6041 N          17.4675   30.9408   21.3354 N.3   1511  UNL1511    -0.3437
   6042 H          17.0258   31.2314   22.2065 H     1511  UNL1511     0.1146
   6043 H          18.1931   31.6304   21.1447 H     1511  UNL1511     0.1146
   6044 H          17.9550   30.0707   21.5443 H     1511  UNL1511     0.1146
   6045 N          17.5976   29.9408   24.1340 N.3   1512  UNL1512    -0.3437
   6046 H          18.5598   30.2314   23.9666 H     1512  UNL1512     0.1146
   6047 H          17.0106   30.6304   23.6668 H     1512  UNL1512     0.1146
   6048 H          17.4732   29.0707   23.6184 H     1512  UNL1512     0.1146
   6049 N          17.4675   30.9408   25.9128 N.3   1513  UNL1513    -0.3437
   6050 H          17.0258   31.2314   26.7840 H     1513  UNL1513     0.1146
   6051 H          18.1931   31.6304   25.7221 H     1513  UNL1513     0.1146
   6052 H          17.9550   30.0707   26.1217 H     1513  UNL1513     0.1146
   6053 N          17.4675   29.9408   28.2016 N.3   1514  UNL1514    -0.3437
   6054 H          17.0258   30.2314   29.0727 H     1514  UNL1514     0.1146
   6055 H          18.1931   30.6304   28.0109 H     1514  UNL1514     0.1146
   6056 H          17.9550   29.0707   28.4105 H     1514  UNL1514     0.1146
   6057 N          19.6616    0.8372    1.3590 N.3   1515  UNL1515    -0.3437
   6058 H          19.2199   -0.0346    1.0705 H     1515  UNL1515     0.1146
   6059 H          20.3872    0.5773    2.0256 H     1515  UNL1515     0.1146
   6060 H          20.1491    1.1906    0.5369 H     1515  UNL1515     0.1146
   6061 N          19.6616    0.8372    3.6477 N.3   1516  UNL1516    -0.3437
   6062 H          19.2199   -0.0346    3.3592 H     1516  UNL1516     0.1146
   6063 H          20.3872    0.5773    4.3143 H     1516  UNL1516     0.1146
   6064 H          20.1491    1.1906    2.8256 H     1516  UNL1516     0.1146
   6065 N          19.6062    0.8013    5.8492 N.3   1517  UNL1517    -0.3437
   6066 H          20.0223    0.5827    6.7534 H     1517  UNL1517     0.1146
   6067 H          20.3301    1.2799    5.3152 H     1517  UNL1517     0.1146
   6068 H          19.4592   -0.0933    5.3840 H     1517  UNL1517     0.1146
   6069 N          19.6400    0.4424    8.1501 N.3   1518  UNL1518    -0.3437
   6070 H          19.6985    1.1007    8.9257 H     1518  UNL1518     0.1146
   6071 H          19.5152    1.0071    7.3112 H     1518  UNL1518     0.1146
   6072 H          20.5641    0.0204    8.0696 H     1518  UNL1518     0.1146
   6073 N          19.6616    0.8372   10.5139 N.3   1519  UNL1519    -0.3437
   6074 H          19.2199   -0.0346   10.2254 H     1519  UNL1519     0.1146
   6075 H          20.3872    0.5773   11.1805 H     1519  UNL1519     0.1146
   6076 H          20.1491    1.1906    9.6918 H     1519  UNL1519     0.1146
   6077 N          19.6616    0.8372   12.8026 N.3   1520  UNL1520    -0.3437
   6078 H          19.2199   -0.0346   12.5141 H     1520  UNL1520     0.1146
   6079 H          20.3872    0.5773   13.4692 H     1520  UNL1520     0.1146
   6080 H          20.1491    1.1906   11.9805 H     1520  UNL1520     0.1146
   6081 N          19.6616    0.8372   15.0913 N.3   1521  UNL1521    -0.3437
   6082 H          19.2199   -0.0346   14.8028 H     1521  UNL1521     0.1146
   6083 H          20.3872    0.5773   15.7579 H     1521  UNL1521     0.1146
   6084 H          20.1491    1.1906   14.2692 H     1521  UNL1521     0.1146
   6085 N          19.6616    0.8372   17.3800 N.3   1522  UNL1522    -0.3437
   6086 H          19.2199   -0.0346   17.0915 H     1522  UNL1522     0.1146
   6087 H          20.3872    0.5773   18.0466 H     1522  UNL1522     0.1146
   6088 H          20.1491    1.1906   16.5579 H     1522  UNL1522     0.1146
   6089 N          19.6616    0.4810   24.0016 N.3   1523  UNL1523    -0.3437
   6090 H          19.2199    1.0050   23.2474 H     1523  UNL1523     0.1146
   6091 H          20.3872   -0.0845   23.5632 H     1523  UNL1523     0.1146
   6092 H          20.1491    1.1691   24.5736 H     1523  UNL1523     0.1146
   6093 N          19.6616    3.2810    1.0703 N.3   1524  UNL1524    -0.3437
   6094 H          19.2199    2.4092    0.7818 H     1524  UNL1524     0.1146
   6095 H          20.3872    3.0211    1.7369 H     1524  UNL1524     0.1146
   6096 H          20.1491    3.6344    0.2482 H     1524  UNL1524     0.1146
   6097 N          19.6251    2.9661    3.1055 N.3   1525  UNL1525    -0.3437
   6098 H          19.7529    2.5829    4.0410 H     1525  UNL1525     0.1146
   6099 H          19.5300    3.9736    3.2252 H     1525  UNL1525     0.1146
   6100 H          20.5097    2.8232    2.6203 H     1525  UNL1525     0.1146
   6101 N          19.6616    2.9248    5.6918 N.3   1526  UNL1526    -0.3437
   6102 H          19.2199    3.4488    4.9377 H     1526  UNL1526     0.1146
   6103 H          20.3872    2.3593    5.2535 H     1526  UNL1526     0.1146
   6104 H          20.1491    3.6129    6.2639 H     1526  UNL1526     0.1146
   6105 N          19.6616    3.2810    7.9365 N.3   1527  UNL1527    -0.3437
   6106 H          19.2199    2.4092    7.6479 H     1527  UNL1527     0.1146
   6107 H          20.3872    3.0211    8.6031 H     1527  UNL1527     0.1146
   6108 H          20.1491    3.6344    7.1144 H     1527  UNL1527     0.1146
   6109 N          19.6616    3.2810   10.2252 N.3   1528  UNL1528    -0.3437
   6110 H          19.2199    2.4092    9.9367 H     1528  UNL1528     0.1146
   6111 H          20.3872    3.0211   10.8918 H     1528  UNL1528     0.1146
   6112 H          20.1491    3.6344    9.4031 H     1528  UNL1528     0.1146
   6113 N          19.6616    3.2810   12.5139 N.3   1529  UNL1529    -0.3437
   6114 H          19.2199    2.4092   12.2254 H     1529  UNL1529     0.1146
   6115 H          20.3872    3.0211   13.1805 H     1529  UNL1529     0.1146
   6116 H          20.1491    3.6344   11.6918 H     1529  UNL1529     0.1146
   6117 N          19.6616    3.2810   14.8026 N.3   1530  UNL1530    -0.3437
   6118 H          19.2199    2.4092   14.5141 H     1530  UNL1530     0.1146
   6119 H          20.3872    3.0211   15.4692 H     1530  UNL1530     0.1146
   6120 H          20.1491    3.6344   13.9805 H     1530  UNL1530     0.1146
   6121 N          19.6616    3.2810   17.0913 N.3   1531  UNL1531    -0.3437
   6122 H          19.2199    2.4092   16.8028 H     1531  UNL1531     0.1146
   6123 H          20.3872    3.0211   17.7579 H     1531  UNL1531     0.1146
   6124 H          20.1491    3.6344   16.2692 H     1531  UNL1531     0.1146
   6125 N          19.8872    3.1598   18.9846 N.3   1532  UNL1532    -0.3437
   6126 H          18.9773    2.7459   19.1826 H     1532  UNL1532     0.1146
   6127 H          19.9743    3.9593   19.6104 H     1532  UNL1532     0.1146
   6128 H          20.5790    2.4808   19.2986 H     1532  UNL1532     0.1146
   6129 N          19.6616    1.2810   21.6687 N.3   1533  UNL1533    -0.3437
   6130 H          19.2199    0.4092   21.3802 H     1533  UNL1533     0.1146
   6131 H          20.3872    1.0211   22.3353 H     1533  UNL1533     0.1146
   6132 H          20.1491    1.6344   20.8466 H     1533  UNL1533     0.1146
   6133 N          19.8682    3.2743   23.6187 N.3   1534  UNL1534    -0.3437
   6134 H          19.2467    3.5972   24.3589 H     1534  UNL1534     0.1146
   6135 H          20.7743    3.1220   24.0592 H     1534  UNL1534     0.1146
   6136 H          19.5285    2.3523   23.3490 H     1534  UNL1534     0.1146
   6137 N          19.7917    1.0589   26.4227 N.3   1535  UNL1535    -0.3437
   6138 H          20.7540    1.3495   26.2553 H     1535  UNL1535     0.1146
   6139 H          19.2047    1.7485   25.9555 H     1535  UNL1535     0.1146
   6140 H          19.6674    0.1888   25.9071 H     1535  UNL1535     0.1146
   6141 N          19.6616    1.2810   28.5349 N.3   1536  UNL1536    -0.3437
   6142 H          19.2199    0.4092   28.2464 H     1536  UNL1536     0.1146
   6143 H          20.3872    1.0211   29.2015 H     1536  UNL1536     0.1146
   6144 H          20.1491    1.6344   27.7128 H     1536  UNL1536     0.1146
   6145 N          19.6616    5.5027    0.7370 N.3   1537  UNL1537    -0.3437
   6146 H          19.2199    5.7933    1.6081 H     1537  UNL1537     0.1146
   6147 H          20.3872    6.1923    0.5463 H     1537  UNL1537     0.1146
   6148 H          20.1491    4.6326    0.9459 H     1537  UNL1537     0.1146
   6149 N          19.6616    5.5027    3.0257 N.3   1538  UNL1538    -0.3437
   6150 H          19.2199    5.7933    3.8968 H     1538  UNL1538     0.1146
   6151 H          20.3872    6.1923    2.8350 H     1538  UNL1538     0.1146
   6152 H          20.1491    4.6326    3.2346 H     1538  UNL1538     0.1146
   6153 N          19.6616    5.5027    5.3144 N.3   1539  UNL1539    -0.3437
   6154 H          19.2199    5.7933    6.1855 H     1539  UNL1539     0.1146
   6155 H          20.3872    6.1923    5.1237 H     1539  UNL1539     0.1146
   6156 H          20.1491    4.6326    5.5233 H     1539  UNL1539     0.1146
   6157 N          19.6616    5.5027    7.6031 N.3   1540  UNL1540    -0.3437
   6158 H          19.2199    5.7933    8.4742 H     1540  UNL1540     0.1146
   6159 H          20.3872    6.1923    7.4124 H     1540  UNL1540     0.1146
   6160 H          20.1491    4.6326    7.8120 H     1540  UNL1540     0.1146
   6161 N          19.6616    5.5027    9.8918 N.3   1541  UNL1541    -0.3437
   6162 H          19.2199    5.7933   10.7629 H     1541  UNL1541     0.1146
   6163 H          20.3872    6.1923    9.7011 H     1541  UNL1541     0.1146
   6164 H          20.1491    4.6326   10.1007 H     1541  UNL1541     0.1146
   6165 N          19.6616    5.5027   12.1806 N.3   1542  UNL1542    -0.3437
   6166 H          19.2199    5.7933   13.0517 H     1542  UNL1542     0.1146
   6167 H          20.3872    6.1923   11.9899 H     1542  UNL1542     0.1146
   6168 H          20.1491    4.6326   12.3895 H     1542  UNL1542     0.1146
   6169 N          19.6616    5.5027   14.4693 N.3   1543  UNL1543    -0.3437
   6170 H          19.2199    5.7933   15.3404 H     1543  UNL1543     0.1146
   6171 H          20.3872    6.1923   14.2786 H     1543  UNL1543     0.1146
   6172 H          20.1491    4.6326   14.6782 H     1543  UNL1543     0.1146
   6173 N          19.6616    5.5027   16.7580 N.3   1544  UNL1544    -0.3437
   6174 H          19.2199    5.7933   17.6291 H     1544  UNL1544     0.1146
   6175 H          20.3872    6.1923   16.5673 H     1544  UNL1544     0.1146
   6176 H          20.1491    4.6326   16.9669 H     1544  UNL1544     0.1146
   6177 N          19.8682    5.7181   19.0413 N.3   1545  UNL1545    -0.3437
   6178 H          19.2467    6.0410   19.7815 H     1545  UNL1545     0.1146
   6179 H          20.7743    5.5658   19.4818 H     1545  UNL1545     0.1146
   6180 H          19.5285    4.7961   18.7716 H     1545  UNL1545     0.1146
   6181 N          19.6616    3.5027   21.3354 N.3   1546  UNL1546    -0.3437
   6182 H          19.2199    3.7933   22.2065 H     1546  UNL1546     0.1146
   6183 H          20.3872    4.1923   21.1447 H     1546  UNL1546     0.1146
   6184 H          20.1491    2.6326   21.5443 H     1546  UNL1546     0.1146
   6185 N          19.6251    5.4099   23.7040 N.3   1547  UNL1547    -0.3437
   6186 H          19.7529    5.0267   24.6395 H     1547  UNL1547     0.1146
   6187 H          19.5300    6.4174   23.8237 H     1547  UNL1547     0.1146
   6188 H          20.5097    5.2670   23.2187 H     1547  UNL1547     0.1146
   6189 N          19.6616    3.5027   25.9128 N.3   1548  UNL1548    -0.3437
   6190 H          19.2199    3.7933   26.7840 H     1548  UNL1548     0.1146
   6191 H          20.3872    4.1923   25.7221 H     1548  UNL1548     0.1146
   6192 H          20.1491    2.6326   26.1217 H     1548  UNL1548     0.1146
   6193 N          19.6400    3.3300   28.4599 N.3   1549  UNL1549    -0.3437
   6194 H          19.6985    3.9883   29.2355 H     1549  UNL1549     0.1146
   6195 H          19.5152    3.8947   27.6209 H     1549  UNL1549     0.1146
   6196 H          20.5641    2.9080   28.3793 H     1549  UNL1549     0.1146
   6197 N          19.6616    8.1686    1.0703 N.3   1550  UNL1550    -0.3437
   6198 H          19.2199    7.2968    0.7818 H     1550  UNL1550     0.1146
   6199 H          20.3872    7.9087    1.7369 H     1550  UNL1550     0.1146
   6200 H          20.1491    8.5220    0.2482 H     1550  UNL1550     0.1146
   6201 N          19.6251    7.8537    3.1055 N.3   1551  UNL1551    -0.3437
   6202 H          19.7529    7.4705    4.0410 H     1551  UNL1551     0.1146
   6203 H          19.5300    8.8612    3.2252 H     1551  UNL1551     0.1146
   6204 H          20.5097    7.7108    2.6203 H     1551  UNL1551     0.1146
   6205 N          19.6251    7.8537    5.3942 N.3   1552  UNL1552    -0.3437
   6206 H          19.7529    7.4705    6.3298 H     1552  UNL1552     0.1146
   6207 H          19.5300    8.8612    5.5140 H     1552  UNL1552     0.1146
   6208 H          20.5097    7.7108    4.9090 H     1552  UNL1552     0.1146
   6209 N          19.6616    8.1686    7.9365 N.3   1553  UNL1553    -0.3437
   6210 H          19.2199    7.2968    7.6479 H     1553  UNL1553     0.1146
   6211 H          20.3872    7.9087    8.6031 H     1553  UNL1553     0.1146
   6212 H          20.1491    8.5220    7.1144 H     1553  UNL1553     0.1146
   6213 N          19.6616    8.1686   10.2252 N.3   1554  UNL1554    -0.3437
   6214 H          19.2199    7.2968    9.9367 H     1554  UNL1554     0.1146
   6215 H          20.3872    7.9087   10.8918 H     1554  UNL1554     0.1146
   6216 H          20.1491    8.5220    9.4031 H     1554  UNL1554     0.1146
   6217 N          19.6251    7.8537   12.2604 N.3   1555  UNL1555    -0.3437
   6218 H          19.7529    7.4705   13.1959 H     1555  UNL1555     0.1146
   6219 H          19.5300    8.8612   12.3801 H     1555  UNL1555     0.1146
   6220 H          20.5097    7.7108   11.7751 H     1555  UNL1555     0.1146
   6221 N          19.6251    7.8537   14.5491 N.3   1556  UNL1556    -0.3437
   6222 H          19.7529    7.4705   15.4846 H     1556  UNL1556     0.1146
   6223 H          19.5300    8.8612   14.6688 H     1556  UNL1556     0.1146
   6224 H          20.5097    7.7108   14.0639 H     1556  UNL1556     0.1146
   6225 N          19.6616    8.1686   17.0913 N.3   1557  UNL1557    -0.3437
   6226 H          19.2199    7.2968   16.8028 H     1557  UNL1557     0.1146
   6227 H          20.3872    7.9087   17.7579 H     1557  UNL1557     0.1146
   6228 H          20.1491    8.5220   16.2692 H     1557  UNL1557     0.1146
   6229 N          19.6616    8.1686   19.3800 N.3   1558  UNL1558    -0.3437
   6230 H          19.2199    7.2968   19.0915 H     1558  UNL1558     0.1146
   6231 H          20.3872    7.9087   20.0466 H     1558  UNL1558     0.1146
   6232 H          20.1491    8.5220   18.5579 H     1558  UNL1558     0.1146
   6233 N          19.6616    5.8124   21.7128 N.3   1559  UNL1559    -0.3437
   6234 H          19.2199    6.3364   20.9587 H     1559  UNL1559     0.1146
   6235 H          20.3872    5.2469   21.2745 H     1559  UNL1559     0.1146
   6236 H          20.1491    6.5005   22.2849 H     1559  UNL1559     0.1146
   6237 N          19.6251    7.8537   23.7040 N.3   1560  UNL1560    -0.3437
   6238 H          19.7529    7.4705   24.6395 H     1560  UNL1560     0.1146
   6239 H          19.5300    8.8612   23.8237 H     1560  UNL1560     0.1146
   6240 H          20.5097    7.7108   23.2187 H     1560  UNL1560     0.1146
   6241 N          19.6616    8.1686   26.2462 N.3   1561  UNL1561    -0.3437
   6242 H          19.2199    7.2968   25.9577 H     1561  UNL1561     0.1146
   6243 H          20.3872    7.9087   26.9128 H     1561  UNL1561     0.1146
   6244 H          20.1491    8.5220   25.4241 H     1561  UNL1561     0.1146
   6245 N          19.5778    7.9635   29.3203 N.3   1562  UNL1562    -0.3437
   6246 H          19.7155    7.3700   30.1370 H     1562  UNL1562     0.1146
   6247 H          19.8569    8.9015   29.6044 H     1562  UNL1562     0.1146
   6248 H          20.2675    7.6612   28.6338 H     1562  UNL1562     0.1146
   6249 N          19.6616   10.6125    1.0703 N.3   1563  UNL1563    -0.3437
   6250 H          19.2199    9.7407    0.7818 H     1563  UNL1563     0.1146
   6251 H          20.3872   10.3525    1.7369 H     1563  UNL1563     0.1146
   6252 H          20.1491   10.9658    0.2482 H     1563  UNL1563     0.1146
   6253 N          19.6616   10.6125    3.3590 N.3   1564  UNL1564    -0.3437
   6254 H          19.2199    9.7407    3.0705 H     1564  UNL1564     0.1146
   6255 H          20.3872   10.3525    4.0256 H     1564  UNL1564     0.1146
   6256 H          20.1491   10.9658    2.5369 H     1564  UNL1564     0.1146
   6257 N          19.6616   10.3903    5.3144 N.3   1565  UNL1565    -0.3437
   6258 H          19.2199   10.6809    6.1855 H     1565  UNL1565     0.1146
   6259 H          20.3872   11.0799    5.1237 H     1565  UNL1565     0.1146
   6260 H          20.1491    9.5202    5.5233 H     1565  UNL1565     0.1146
   6261 N          19.6616   10.2562    7.9806 N.3   1566  UNL1566    -0.3437
   6262 H          19.2199   10.7802    7.2264 H     1566  UNL1566     0.1146
   6263 H          20.3872    9.6907    7.5422 H     1566  UNL1566     0.1146
   6264 H          20.1491   10.9443    8.5526 H     1566  UNL1566     0.1146
   6265 N          19.6616   10.6125   10.2252 N.3   1567  UNL1567    -0.3437
   6266 H          19.2199    9.7407    9.9367 H     1567  UNL1567     0.1146
   6267 H          20.3872   10.3525   10.8918 H     1567  UNL1567     0.1146
   6268 H          20.1491   10.9658    9.4031 H     1567  UNL1567     0.1146
   6269 N          19.6616   10.3903   12.1806 N.3   1568  UNL1568    -0.3437
   6270 H          19.2199   10.6809   13.0517 H     1568  UNL1568     0.1146
   6271 H          20.3872   11.0799   11.9899 H     1568  UNL1568     0.1146
   6272 H          20.1491    9.5202   12.3895 H     1568  UNL1568     0.1146
   6273 N          19.6616   10.2562   14.8467 N.3   1569  UNL1569    -0.3437
   6274 H          19.2199   10.7802   14.0926 H     1569  UNL1569     0.1146
   6275 H          20.3872    9.6907   14.4084 H     1569  UNL1569     0.1146
   6276 H          20.1491   10.9443   15.4188 H     1569  UNL1569     0.1146
   6277 N          19.7917   10.3903   17.2679 N.3   1570  UNL1570    -0.3437
   6278 H          20.7540   10.6809   17.1004 H     1570  UNL1570     0.1146
   6279 H          19.2047   11.0799   16.8007 H     1570  UNL1570     0.1146
   6280 H          19.6674    9.5202   16.7523 H     1570  UNL1570     0.1146
   6281 N          19.6616   10.6125   19.3800 N.3   1571  UNL1571    -0.3437
   6282 H          19.2199    9.7407   19.0915 H     1571  UNL1571     0.1146
   6283 H          20.3872   10.3525   20.0466 H     1571  UNL1571     0.1146
   6284 H          20.1491   10.9658   18.5579 H     1571  UNL1571     0.1146
   6285 N          19.6616    8.2562   21.7128 N.3   1572  UNL1572    -0.3437
   6286 H          19.2199    8.7802   20.9587 H     1572  UNL1572     0.1146
   6287 H          20.3872    7.6907   21.2745 H     1572  UNL1572     0.1146
   6288 H          20.1491    8.9443   22.2849 H     1572  UNL1572     0.1146
   6289 N          19.6616   10.2562   24.0016 N.3   1573  UNL1573    -0.3437
   6290 H          19.2199   10.7802   23.2474 H     1573  UNL1573     0.1146
   6291 H          20.3872    9.6907   23.5632 H     1573  UNL1573     0.1146
   6292 H          20.1491   10.9443   24.5736 H     1573  UNL1573     0.1146
   6293 N          19.6616   10.6125   26.2462 N.3   1574  UNL1574    -0.3437
   6294 H          19.2199    9.7407   25.9577 H     1574  UNL1574     0.1146
   6295 H          20.3872   10.3525   26.9128 H     1574  UNL1574     0.1146
   6296 H          20.1491   10.9658   25.4241 H     1574  UNL1574     0.1146
   6297 N          19.5778   10.4074   29.3203 N.3   1575  UNL1575    -0.3437
   6298 H          19.7155    9.8138   30.1370 H     1575  UNL1575     0.1146
   6299 H          19.8569   11.3453   29.6044 H     1575  UNL1575     0.1146
   6300 H          20.2675   10.1050   28.6338 H     1575  UNL1575     0.1146
   6301 N          19.6616   13.0563    1.0703 N.3   1576  UNL1576    -0.3437
   6302 H          19.2199   12.1845    0.7818 H     1576  UNL1576     0.1146
   6303 H          20.3872   12.7963    1.7369 H     1576  UNL1576     0.1146
   6304 H          20.1491   13.4096    0.2482 H     1576  UNL1576     0.1146
   6305 N          19.6616   12.8341    3.0257 N.3   1577  UNL1577    -0.3437
   6306 H          19.2199   13.1247    3.8968 H     1577  UNL1577     0.1146
   6307 H          20.3872   13.5237    2.8350 H     1577  UNL1577     0.1146
   6308 H          20.1491   11.9640    3.2346 H     1577  UNL1577     0.1146
   6309 N          19.6616   12.7000    5.6918 N.3   1578  UNL1578    -0.3437
   6310 H          19.2199   13.2240    4.9377 H     1578  UNL1578     0.1146
   6311 H          20.3872   12.1345    5.2535 H     1578  UNL1578     0.1146
   6312 H          20.1491   13.3881    6.2639 H     1578  UNL1578     0.1146
   6313 N          19.6616   13.0563    7.9365 N.3   1579  UNL1579    -0.3437
   6314 H          19.2199   12.1845    7.6479 H     1579  UNL1579     0.1146
   6315 H          20.3872   12.7963    8.6031 H     1579  UNL1579     0.1146
   6316 H          20.1491   13.4096    7.1144 H     1579  UNL1579     0.1146
   6317 N          19.6616   13.0563   10.2252 N.3   1580  UNL1580    -0.3437
   6318 H          19.2199   12.1845    9.9367 H     1580  UNL1580     0.1146
   6319 H          20.3872   12.7963   10.8918 H     1580  UNL1580     0.1146
   6320 H          20.1491   13.4096    9.4031 H     1580  UNL1580     0.1146
   6321 N          19.8872   12.9350   12.1184 N.3   1581  UNL1581    -0.3437
   6322 H          18.9773   12.5211   12.3165 H     1581  UNL1581     0.1146
   6323 H          19.9743   13.7345   12.7442 H     1581  UNL1581     0.1146
   6324 H          20.5790   12.2560   12.4324 H     1581  UNL1581     0.1146
   6325 N          19.6616   12.7000   14.8467 N.3   1582  UNL1582    -0.3437
   6326 H          19.2199   13.2240   14.0926 H     1582  UNL1582     0.1146
   6327 H          20.3872   12.1345   14.4084 H     1582  UNL1582     0.1146
   6328 H          20.1491   13.3881   15.4188 H     1582  UNL1582     0.1146
   6329 N          19.6616   12.8341   16.7580 N.3   1583  UNL1583    -0.3437
   6330 H          19.2199   13.1247   17.6291 H     1583  UNL1583     0.1146
   6331 H          20.3872   13.5237   16.5673 H     1583  UNL1583     0.1146
   6332 H          20.1491   11.9640   16.9669 H     1583  UNL1583     0.1146
   6333 N          19.6616   12.7000   19.4241 N.3   1584  UNL1584    -0.3437
   6334 H          19.2199   13.2240   18.6700 H     1584  UNL1584     0.1146
   6335 H          20.3872   12.1345   18.9858 H     1584  UNL1584     0.1146
   6336 H          20.1491   13.3881   19.9962 H     1584  UNL1584     0.1146
   6337 N          19.6616   11.0563   21.6687 N.3   1585  UNL1585    -0.3437
   6338 H          19.2199   10.1845   21.3802 H     1585  UNL1585     0.1146
   6339 H          20.3872   10.7963   22.3353 H     1585  UNL1585     0.1146
   6340 H          20.1491   11.4096   20.8466 H     1585  UNL1585     0.1146
   6341 N          19.6616   12.7000   24.0016 N.3   1586  UNL1586    -0.3437
   6342 H          19.2199   13.2240   23.2474 H     1586  UNL1586     0.1146
   6343 H          20.3872   12.1345   23.5632 H     1586  UNL1586     0.1146
   6344 H          20.1491   13.3881   24.5736 H     1586  UNL1586     0.1146
   6345 N          19.7917   12.8341   26.4227 N.3   1587  UNL1587    -0.3437
   6346 H          20.7540   13.1247   26.2553 H     1587  UNL1587     0.1146
   6347 H          19.2047   13.5237   25.9555 H     1587  UNL1587     0.1146
   6348 H          19.6674   11.9640   25.9071 H     1587  UNL1587     0.1146
   6349 N          19.5778   12.8512   29.3203 N.3   1588  UNL1588    -0.3437
   6350 H          19.7155   12.2576   30.1370 H     1588  UNL1588     0.1146
   6351 H          19.8569   13.7891   29.6044 H     1588  UNL1588     0.1146
   6352 H          20.2675   12.5488   28.6338 H     1588  UNL1588     0.1146
   6353 N          19.6616   15.5001    1.0703 N.3   1589  UNL1589    -0.3437
   6354 H          19.2199   14.6283    0.7818 H     1589  UNL1589     0.1146
   6355 H          20.3872   15.2401    1.7369 H     1589  UNL1589     0.1146
   6356 H          20.1491   15.8534    0.2482 H     1589  UNL1589     0.1146
   6357 N          19.6616   15.5001    3.3590 N.3   1590  UNL1590    -0.3437
   6358 H          19.2199   14.6283    3.0705 H     1590  UNL1590     0.1146
   6359 H          20.3872   15.2401    4.0256 H     1590  UNL1590     0.1146
   6360 H          20.1491   15.8534    2.5369 H     1590  UNL1590     0.1146
   6361 N          19.6616   15.5001    5.6477 N.3   1591  UNL1591    -0.3437
   6362 H          19.2199   14.6283    5.3592 H     1591  UNL1591     0.1146
   6363 H          20.3872   15.2401    6.3143 H     1591  UNL1591     0.1146
   6364 H          20.1491   15.8534    4.8256 H     1591  UNL1591     0.1146
   6365 N          19.6616   15.5001    7.9365 N.3   1592  UNL1592    -0.3437
   6366 H          19.2199   14.6283    7.6479 H     1592  UNL1592     0.1146
   6367 H          20.3872   15.2401    8.6031 H     1592  UNL1592     0.1146
   6368 H          20.1491   15.8534    7.1144 H     1592  UNL1592     0.1146
   6369 N          19.6616   15.5001   10.2252 N.3   1593  UNL1593    -0.3437
   6370 H          19.2199   14.6283    9.9367 H     1593  UNL1593     0.1146
   6371 H          20.3872   15.2401   10.8918 H     1593  UNL1593     0.1146
   6372 H          20.1491   15.8534    9.4031 H     1593  UNL1593     0.1146
   6373 N          19.6616   15.5001   12.5139 N.3   1594  UNL1594    -0.3437
   6374 H          19.2199   14.6283   12.2254 H     1594  UNL1594     0.1146
   6375 H          20.3872   15.2401   13.1805 H     1594  UNL1594     0.1146
   6376 H          20.1491   15.8534   11.6918 H     1594  UNL1594     0.1146
   6377 N          19.6616   15.5001   14.8026 N.3   1595  UNL1595    -0.3437
   6378 H          19.2199   14.6283   14.5141 H     1595  UNL1595     0.1146
   6379 H          20.3872   15.2401   15.4692 H     1595  UNL1595     0.1146
   6380 H          20.1491   15.8534   13.9805 H     1595  UNL1595     0.1146
   6381 N          19.6616   15.5001   17.0913 N.3   1596  UNL1596    -0.3437
   6382 H          19.2199   14.6283   16.8028 H     1596  UNL1596     0.1146
   6383 H          20.3872   15.2401   17.7579 H     1596  UNL1596     0.1146
   6384 H          20.1491   15.8534   16.2692 H     1596  UNL1596     0.1146
   6385 N          19.6616   15.5001   19.3800 N.3   1597  UNL1597    -0.3437
   6386 H          19.2199   14.6283   19.0915 H     1597  UNL1597     0.1146
   6387 H          20.3872   15.2401   20.0466 H     1597  UNL1597     0.1146
   6388 H          20.1491   15.8534   18.5579 H     1597  UNL1597     0.1146
   6389 N          19.6616   13.5001   21.6687 N.3   1598  UNL1598    -0.3437
   6390 H          19.2199   12.6283   21.3802 H     1598  UNL1598     0.1146
   6391 H          20.3872   13.2401   22.3353 H     1598  UNL1598     0.1146
   6392 H          20.1491   13.8534   20.8466 H     1598  UNL1598     0.1146
   6393 N          19.8682   15.4934   23.6187 N.3   1599  UNL1599    -0.3437
   6394 H          19.2467   15.8162   24.3589 H     1599  UNL1599     0.1146
   6395 H          20.7743   15.3410   24.0592 H     1599  UNL1599     0.1146
   6396 H          19.5285   14.5713   23.3490 H     1599  UNL1599     0.1146
   6397 N          19.8682   15.4934   25.9074 N.3   1600  UNL1600    -0.3437
   6398 H          19.2467   15.8162   26.6476 H     1600  UNL1600     0.1146
   6399 H          20.7743   15.3410   26.3480 H     1600  UNL1600     0.1146
   6400 H          19.5285   14.5713   25.6377 H     1600  UNL1600     0.1146
   6401 N          19.5778   15.2950   29.3203 N.3   1601  UNL1601    -0.3437
   6402 H          19.7155   14.7014   30.1370 H     1601  UNL1601     0.1146
   6403 H          19.8569   16.2329   29.6044 H     1601  UNL1601     0.1146
   6404 H          20.2675   14.9926   28.6338 H     1601  UNL1601     0.1146
   6405 N          19.6616   17.7217    0.7370 N.3   1602  UNL1602    -0.3437
   6406 H          19.2199   18.0123    1.6081 H     1602  UNL1602     0.1146
   6407 H          20.3872   18.4114    0.5463 H     1602  UNL1602     0.1146
   6408 H          20.1491   16.8517    0.9459 H     1602  UNL1602     0.1146
   6409 N          19.6616   17.7217    3.0257 N.3   1603  UNL1603    -0.3437
   6410 H          19.2199   18.0123    3.8968 H     1603  UNL1603     0.1146
   6411 H          20.3872   18.4114    2.8350 H     1603  UNL1603     0.1146
   6412 H          20.1491   16.8517    3.2346 H     1603  UNL1603     0.1146
   6413 N          19.6616   17.7217    5.3144 N.3   1604  UNL1604    -0.3437
   6414 H          19.2199   18.0123    6.1855 H     1604  UNL1604     0.1146
   6415 H          20.3872   18.4114    5.1237 H     1604  UNL1604     0.1146
   6416 H          20.1491   16.8517    5.5233 H     1604  UNL1604     0.1146
   6417 N          19.6616   17.7217    7.6031 N.3   1605  UNL1605    -0.3437
   6418 H          19.2199   18.0123    8.4742 H     1605  UNL1605     0.1146
   6419 H          20.3872   18.4114    7.4124 H     1605  UNL1605     0.1146
   6420 H          20.1491   16.8517    7.8120 H     1605  UNL1605     0.1146
   6421 N          19.6616   17.7217    9.8918 N.3   1606  UNL1606    -0.3437
   6422 H          19.2199   18.0123   10.7629 H     1606  UNL1606     0.1146
   6423 H          20.3872   18.4114    9.7011 H     1606  UNL1606     0.1146
   6424 H          20.1491   16.8517   10.1007 H     1606  UNL1606     0.1146
   6425 N          19.6616   17.7217   12.1806 N.3   1607  UNL1607    -0.3437
   6426 H          19.2199   18.0123   13.0517 H     1607  UNL1607     0.1146
   6427 H          20.3872   18.4114   11.9899 H     1607  UNL1607     0.1146
   6428 H          20.1491   16.8517   12.3895 H     1607  UNL1607     0.1146
   6429 N          19.6616   17.7217   14.4693 N.3   1608  UNL1608    -0.3437
   6430 H          19.2199   18.0123   15.3404 H     1608  UNL1608     0.1146
   6431 H          20.3872   18.4114   14.2786 H     1608  UNL1608     0.1146
   6432 H          20.1491   16.8517   14.6782 H     1608  UNL1608     0.1146
   6433 N          19.6616   17.7217   16.7580 N.3   1609  UNL1609    -0.3437
   6434 H          19.2199   18.0123   17.6291 H     1609  UNL1609     0.1146
   6435 H          20.3872   18.4114   16.5673 H     1609  UNL1609     0.1146
   6436 H          20.1491   16.8517   16.9669 H     1609  UNL1609     0.1146
   6437 N          19.6616   17.7217   19.0467 N.3   1610  UNL1610    -0.3437
   6438 H          19.2199   18.0123   19.9178 H     1610  UNL1610     0.1146
   6439 H          20.3872   18.4114   18.8560 H     1610  UNL1610     0.1146
   6440 H          20.1491   16.8517   19.2556 H     1610  UNL1610     0.1146
   6441 N          19.6616   15.5876   21.7128 N.3   1611  UNL1611    -0.3437
   6442 H          19.2199   16.1116   20.9587 H     1611  UNL1611     0.1146
   6443 H          20.3872   15.0222   21.2745 H     1611  UNL1611     0.1146
   6444 H          20.1491   16.2757   22.2849 H     1611  UNL1611     0.1146
   6445 N          19.5778   17.7388   23.7428 N.3   1612  UNL1612    -0.3437
   6446 H          19.7155   17.1452   24.5596 H     1612  UNL1612     0.1146
   6447 H          19.8569   18.6767   24.0270 H     1612  UNL1612     0.1146
   6448 H          20.2675   17.4364   23.0564 H     1612  UNL1612     0.1146
   6449 N          19.7917   17.7217   26.4227 N.3   1613  UNL1613    -0.3437
   6450 H          20.7540   18.0123   26.2553 H     1613  UNL1613     0.1146
   6451 H          19.2047   18.4114   25.9555 H     1613  UNL1613     0.1146
   6452 H          19.6674   16.8517   25.9071 H     1613  UNL1613     0.1146
   6453 N          19.5778   17.7388   29.3203 N.3   1614  UNL1614    -0.3437
   6454 H          19.7155   17.1452   30.1370 H     1614  UNL1614     0.1146
   6455 H          19.8569   18.6767   29.6044 H     1614  UNL1614     0.1146
   6456 H          20.2675   17.4364   28.6338 H     1614  UNL1614     0.1146
   6457 N          19.6616   20.3877    1.0703 N.3   1615  UNL1615    -0.3437
   6458 H          19.2199   19.5159    0.7818 H     1615  UNL1615     0.1146
   6459 H          20.3872   20.1278    1.7369 H     1615  UNL1615     0.1146
   6460 H          20.1491   20.7410    0.2482 H     1615  UNL1615     0.1146
   6461 N          19.6616   20.3877    3.3590 N.3   1616  UNL1616    -0.3437
   6462 H          19.2199   19.5159    3.0705 H     1616  UNL1616     0.1146
   6463 H          20.3872   20.1278    4.0256 H     1616  UNL1616     0.1146
   6464 H          20.1491   20.7410    2.5369 H     1616  UNL1616     0.1146
   6465 N          19.6616   20.3877    5.6477 N.3   1617  UNL1617    -0.3437
   6466 H          19.2199   19.5159    5.3592 H     1617  UNL1617     0.1146
   6467 H          20.3872   20.1278    6.3143 H     1617  UNL1617     0.1146
   6468 H          20.1491   20.7410    4.8256 H     1617  UNL1617     0.1146
   6469 N          19.6616   20.3877    7.9365 N.3   1618  UNL1618    -0.3437
   6470 H          19.2199   19.5159    7.6479 H     1618  UNL1618     0.1146
   6471 H          20.3872   20.1278    8.6031 H     1618  UNL1618     0.1146
   6472 H          20.1491   20.7410    7.1144 H     1618  UNL1618     0.1146
   6473 N          19.6616   20.3877   10.2252 N.3   1619  UNL1619    -0.3437
   6474 H          19.2199   19.5159    9.9367 H     1619  UNL1619     0.1146
   6475 H          20.3872   20.1278   10.8918 H     1619  UNL1619     0.1146
   6476 H          20.1491   20.7410    9.4031 H     1619  UNL1619     0.1146
   6477 N          19.6616   20.3877   12.5139 N.3   1620  UNL1620    -0.3437
   6478 H          19.2199   19.5159   12.2254 H     1620  UNL1620     0.1146
   6479 H          20.3872   20.1278   13.1805 H     1620  UNL1620     0.1146
   6480 H          20.1491   20.7410   11.6918 H     1620  UNL1620     0.1146
   6481 N          19.6616   20.1656   14.4693 N.3   1621  UNL1621    -0.3437
   6482 H          19.2199   20.4562   15.3404 H     1621  UNL1621     0.1146
   6483 H          20.3872   20.8552   14.2786 H     1621  UNL1621     0.1146
   6484 H          20.1491   19.2955   14.6782 H     1621  UNL1621     0.1146
   6485 N          19.6251   20.0727   16.8378 N.3   1622  UNL1622    -0.3437
   6486 H          19.7529   19.6895   17.7733 H     1622  UNL1622     0.1146
   6487 H          19.5300   21.0802   16.9575 H     1622  UNL1622     0.1146
   6488 H          20.5097   19.9299   16.3526 H     1622  UNL1622     0.1146
   6489 N          19.6251   20.0727   19.1265 N.3   1623  UNL1623    -0.3437
   6490 H          19.7529   19.6895   20.0621 H     1623  UNL1623     0.1146
   6491 H          19.5300   21.0802   19.2462 H     1623  UNL1623     0.1146
   6492 H          20.5097   19.9299   18.6413 H     1623  UNL1623     0.1146
   6493 N          19.6062   18.3517   21.5815 N.3   1624  UNL1624    -0.3437
   6494 H          20.0223   18.1331   22.4856 H     1624  UNL1624     0.1146
   6495 H          20.3301   18.8304   21.0475 H     1624  UNL1624     0.1146
   6496 H          19.4592   17.4571   21.1163 H     1624  UNL1624     0.1146
   6497 N          19.6616   20.0314   24.0016 N.3   1625  UNL1625    -0.3437
   6498 H          19.2199   20.5554   23.2474 H     1625  UNL1625     0.1146
   6499 H          20.3872   19.4660   23.5632 H     1625  UNL1625     0.1146
   6500 H          20.1491   20.7195   24.5736 H     1625  UNL1625     0.1146
   6501 N          19.6616   20.3877   26.2462 N.3   1626  UNL1626    -0.3437
   6502 H          19.2199   19.5159   25.9577 H     1626  UNL1626     0.1146
   6503 H          20.3872   20.1278   26.9128 H     1626  UNL1626     0.1146
   6504 H          20.1491   20.7410   25.4241 H     1626  UNL1626     0.1146
   6505 N          19.5778   20.1826   29.3203 N.3   1627  UNL1627    -0.3437
   6506 H          19.7155   19.5890   30.1370 H     1627  UNL1627     0.1146
   6507 H          19.8569   21.1205   29.6044 H     1627  UNL1627     0.1146
   6508 H          20.2675   19.8802   28.6338 H     1627  UNL1627     0.1146
   6509 N          19.6616   22.8315    1.0703 N.3   1628  UNL1628    -0.3437
   6510 H          19.2199   21.9597    0.7818 H     1628  UNL1628     0.1146
   6511 H          20.3872   22.5716    1.7369 H     1628  UNL1628     0.1146
   6512 H          20.1491   23.1848    0.2482 H     1628  UNL1628     0.1146
   6513 N          19.6616   22.6094    3.0257 N.3   1629  UNL1629    -0.3437
   6514 H          19.2199   22.9000    3.8968 H     1629  UNL1629     0.1146
   6515 H          20.3872   23.2990    2.8350 H     1629  UNL1629     0.1146
   6516 H          20.1491   21.7393    3.2346 H     1629  UNL1629     0.1146
   6517 N          19.6616   22.4752    5.6918 N.3   1630  UNL1630    -0.3437
   6518 H          19.2199   22.9992    4.9377 H     1630  UNL1630     0.1146
   6519 H          20.3872   21.9098    5.2535 H     1630  UNL1630     0.1146
   6520 H          20.1491   23.1633    6.2639 H     1630  UNL1630     0.1146
   6521 N          19.6616   22.8315    7.9365 N.3   1631  UNL1631    -0.3437
   6522 H          19.2199   21.9597    7.6479 H     1631  UNL1631     0.1146
   6523 H          20.3872   22.5716    8.6031 H     1631  UNL1631     0.1146
   6524 H          20.1491   23.1848    7.1144 H     1631  UNL1631     0.1146
   6525 N          19.6616   22.8315   10.2252 N.3   1632  UNL1632    -0.3437
   6526 H          19.2199   21.9597    9.9367 H     1632  UNL1632     0.1146
   6527 H          20.3872   22.5716   10.8918 H     1632  UNL1632     0.1146
   6528 H          20.1491   23.1848    9.4031 H     1632  UNL1632     0.1146
   6529 N          19.6616   22.8315   12.5139 N.3   1633  UNL1633    -0.3437
   6530 H          19.2199   21.9597   12.2254 H     1633  UNL1633     0.1146
   6531 H          20.3872   22.5716   13.1805 H     1633  UNL1633     0.1146
   6532 H          20.1491   23.1848   11.6918 H     1633  UNL1633     0.1146
   6533 N          19.6251   22.5165   14.5491 N.3   1634  UNL1634    -0.3437
   6534 H          19.7529   22.1333   15.4846 H     1634  UNL1634     0.1146
   6535 H          19.5300   23.5240   14.6688 H     1634  UNL1634     0.1146
   6536 H          20.5097   22.3737   14.0639 H     1634  UNL1634     0.1146
   6537 N          19.6616   22.8315   17.0913 N.3   1635  UNL1635    -0.3437
   6538 H          19.2199   21.9597   16.8028 H     1635  UNL1635     0.1146
   6539 H          20.3872   22.5716   17.7579 H     1635  UNL1635     0.1146
   6540 H          20.1491   23.1848   16.2692 H     1635  UNL1635     0.1146
   6541 N          19.6616   22.8315   19.3800 N.3   1636  UNL1636    -0.3437
   6542 H          19.2199   21.9597   19.0915 H     1636  UNL1636     0.1146
   6543 H          20.3872   22.5716   20.0466 H     1636  UNL1636     0.1146
   6544 H          20.1491   23.1848   18.5579 H     1636  UNL1636     0.1146
   6545 N          19.6616   22.6094   21.3354 N.3   1637  UNL1637    -0.3437
   6546 H          19.2199   22.9000   22.2065 H     1637  UNL1637     0.1146
   6547 H          20.3872   23.2990   21.1447 H     1637  UNL1637     0.1146
   6548 H          20.1491   21.7393   21.5443 H     1637  UNL1637     0.1146
   6549 N          19.6616   22.4752   24.0016 N.3   1638  UNL1638    -0.3437
   6550 H          19.2199   22.9992   23.2474 H     1638  UNL1638     0.1146
   6551 H          20.3872   21.9098   23.5632 H     1638  UNL1638     0.1146
   6552 H          20.1491   23.1633   24.5736 H     1638  UNL1638     0.1146
   6553 N          19.7917   22.6094   26.4227 N.3   1639  UNL1639    -0.3437
   6554 H          20.7540   22.9000   26.2553 H     1639  UNL1639     0.1146
   6555 H          19.2047   23.2990   25.9555 H     1639  UNL1639     0.1146
   6556 H          19.6674   21.7393   25.9071 H     1639  UNL1639     0.1146
   6557 N          19.5778   22.6264   29.3203 N.3   1640  UNL1640    -0.3437
   6558 H          19.7155   22.0328   30.1370 H     1640  UNL1640     0.1146
   6559 H          19.8569   23.5643   29.6044 H     1640  UNL1640     0.1146
   6560 H          20.2675   22.3240   28.6338 H     1640  UNL1640     0.1146
   6561 N          19.8682   25.2686    0.7315 N.3   1641  UNL1641    -0.3437
   6562 H          19.2467   25.5914    1.4717 H     1641  UNL1641     0.1146
   6563 H          20.7743   25.1162    1.1721 H     1641  UNL1641     0.1146
   6564 H          19.5285   24.3465    0.4619 H     1641  UNL1641     0.1146
   6565 N          19.6616   25.0532    3.0257 N.3   1642  UNL1642    -0.3437
   6566 H          19.2199   25.3438    3.8968 H     1642  UNL1642     0.1146
   6567 H          20.3872   25.7428    2.8350 H     1642  UNL1642     0.1146
   6568 H          20.1491   24.1831    3.2346 H     1642  UNL1642     0.1146
   6569 N          19.8682   25.2686    5.3090 N.3   1643  UNL1643    -0.3437
   6570 H          19.2467   25.5914    6.0492 H     1643  UNL1643     0.1146
   6571 H          20.7743   25.1162    5.7495 H     1643  UNL1643     0.1146
   6572 H          19.5285   24.3465    5.0393 H     1643  UNL1643     0.1146
   6573 N          19.6251   24.9603    7.6830 N.3   1644  UNL1644    -0.3437
   6574 H          19.7529   24.5771    8.6185 H     1644  UNL1644     0.1146
   6575 H          19.5300   25.9678    7.8027 H     1644  UNL1644     0.1146
   6576 H          20.5097   24.8175    7.1977 H     1644  UNL1644     0.1146
   6577 N          19.6251   24.9603    9.9717 N.3   1645  UNL1645    -0.3437
   6578 H          19.7529   24.5771   10.9072 H     1645  UNL1645     0.1146
   6579 H          19.5300   25.9678   10.0914 H     1645  UNL1645     0.1146
   6580 H          20.5097   24.8175    9.4864 H     1645  UNL1645     0.1146
   6581 N          19.6251   24.9603   12.2604 N.3   1646  UNL1646    -0.3437
   6582 H          19.7529   24.5771   13.1959 H     1646  UNL1646     0.1146
   6583 H          19.5300   25.9678   12.3801 H     1646  UNL1646     0.1146
   6584 H          20.5097   24.8175   11.7751 H     1646  UNL1646     0.1146
   6585 N          19.6616   24.9191   14.8467 N.3   1647  UNL1647    -0.3437
   6586 H          19.2199   25.4430   14.0926 H     1647  UNL1647     0.1146
   6587 H          20.3872   24.3536   14.4084 H     1647  UNL1647     0.1146
   6588 H          20.1491   25.6071   15.4188 H     1647  UNL1647     0.1146
   6589 N          19.6616   25.2753   17.0913 N.3   1648  UNL1648    -0.3437
   6590 H          19.2199   24.4035   16.8028 H     1648  UNL1648     0.1146
   6591 H          20.3872   25.0154   17.7579 H     1648  UNL1648     0.1146
   6592 H          20.1491   25.6286   16.2692 H     1648  UNL1648     0.1146
   6593 N          19.6616   25.2753   19.3800 N.3   1649  UNL1649    -0.3437
   6594 H          19.2199   24.4035   19.0915 H     1649  UNL1649     0.1146
   6595 H          20.3872   25.0154   20.0466 H     1649  UNL1649     0.1146
   6596 H          20.1491   25.6286   18.5579 H     1649  UNL1649     0.1146
   6597 N          19.6616   25.2753   21.6687 N.3   1650  UNL1650    -0.3437
   6598 H          19.2199   24.4035   21.3802 H     1650  UNL1650     0.1146
   6599 H          20.3872   25.0154   22.3353 H     1650  UNL1650     0.1146
   6600 H          20.1491   25.6286   20.8466 H     1650  UNL1650     0.1146
   6601 N          19.6616   25.0532   23.6241 N.3   1651  UNL1651    -0.3437
   6602 H          19.2199   25.3438   24.4952 H     1651  UNL1651     0.1146
   6603 H          20.3872   25.7428   23.4334 H     1651  UNL1651     0.1146
   6604 H          20.1491   24.1831   23.8330 H     1651  UNL1651     0.1146
   6605 N          19.6616   24.9191   26.2903 N.3   1652  UNL1652    -0.3437
   6606 H          19.2199   25.4430   25.5361 H     1652  UNL1652     0.1146
   6607 H          20.3872   24.3536   25.8519 H     1652  UNL1652     0.1146
   6608 H          20.1491   25.6071   26.8623 H     1652  UNL1652     0.1146
   6609 N          19.5778   25.0702   29.3203 N.3   1653  UNL1653    -0.3437
   6610 H          19.7155   24.4766   30.1370 H     1653  UNL1653     0.1146
   6611 H          19.8569   26.0081   29.6044 H     1653  UNL1653     0.1146
   6612 H          20.2675   24.7678   28.6338 H     1653  UNL1653     0.1146
   6613 N          19.6616   27.4970    0.7370 N.3   1654  UNL1654    -0.3437
   6614 H          19.2199   27.7876    1.6081 H     1654  UNL1654     0.1146
   6615 H          20.3872   28.1866    0.5463 H     1654  UNL1654     0.1146
   6616 H          20.1491   26.6269    0.9459 H     1654  UNL1654     0.1146
   6617 N          19.6616   27.3629    3.4031 N.3   1655  UNL1655    -0.3437
   6618 H          19.2199   27.8868    2.6490 H     1655  UNL1655     0.1146
   6619 H          20.3872   26.7974    2.9648 H     1655  UNL1655     0.1146
   6620 H          20.1491   28.0509    3.9752 H     1655  UNL1655     0.1146
   6621 N          19.6616   27.4970    5.3144 N.3   1656  UNL1656    -0.3437
   6622 H          19.2199   27.7876    6.1855 H     1656  UNL1656     0.1146
   6623 H          20.3872   28.1866    5.1237 H     1656  UNL1656     0.1146
   6624 H          20.1491   26.6269    5.5233 H     1656  UNL1656     0.1146
   6625 N          19.6616   27.4970    7.6031 N.3   1657  UNL1657    -0.3437
   6626 H          19.2199   27.7876    8.4742 H     1657  UNL1657     0.1146
   6627 H          20.3872   28.1866    7.4124 H     1657  UNL1657     0.1146
   6628 H          20.1491   26.6269    7.8120 H     1657  UNL1657     0.1146
   6629 N          19.6616   27.4970    9.8918 N.3   1658  UNL1658    -0.3437
   6630 H          19.2199   27.7876   10.7629 H     1658  UNL1658     0.1146
   6631 H          20.3872   28.1866    9.7011 H     1658  UNL1658     0.1146
   6632 H          20.1491   26.6269   10.1007 H     1658  UNL1658     0.1146
   6633 N          19.6616   27.4970   12.1806 N.3   1659  UNL1659    -0.3437
   6634 H          19.2199   27.7876   13.0517 H     1659  UNL1659     0.1146
   6635 H          20.3872   28.1866   11.9899 H     1659  UNL1659     0.1146
   6636 H          20.1491   26.6269   12.3895 H     1659  UNL1659     0.1146
   6637 N          19.8682   27.7124   14.4638 N.3   1660  UNL1660    -0.3437
   6638 H          19.2467   28.0352   15.2040 H     1660  UNL1660     0.1146
   6639 H          20.7743   27.5600   14.9044 H     1660  UNL1660     0.1146
   6640 H          19.5285   26.7903   14.1941 H     1660  UNL1660     0.1146
   6641 N          19.6251   27.4041   16.8378 N.3   1661  UNL1661    -0.3437
   6642 H          19.7529   27.0209   17.7733 H     1661  UNL1661     0.1146
   6643 H          19.5300   28.4116   16.9575 H     1661  UNL1661     0.1146
   6644 H          20.5097   27.2613   16.3526 H     1661  UNL1661     0.1146
   6645 N          19.6616   27.7191   19.3800 N.3   1662  UNL1662    -0.3437
   6646 H          19.2199   26.8473   19.0915 H     1662  UNL1662     0.1146
   6647 H          20.3872   27.4592   20.0466 H     1662  UNL1662     0.1146
   6648 H          20.1491   28.0724   18.5579 H     1662  UNL1662     0.1146
   6649 N          19.6251   27.4041   21.4152 N.3   1663  UNL1663    -0.3437
   6650 H          19.7529   27.0209   22.3508 H     1663  UNL1663     0.1146
   6651 H          19.5300   28.4116   21.5350 H     1663  UNL1663     0.1146
   6652 H          20.5097   27.2613   20.9300 H     1663  UNL1663     0.1146
   6653 N          19.6616   27.3629   24.0016 N.3   1664  UNL1664    -0.3437
   6654 H          19.2199   27.8868   23.2474 H     1664  UNL1664     0.1146
   6655 H          20.3872   26.7974   23.5632 H     1664  UNL1664     0.1146
   6656 H          20.1491   28.0509   24.5736 H     1664  UNL1664     0.1146
   6657 N          19.6616   27.7191   26.2462 N.3   1665  UNL1665    -0.3437
   6658 H          19.2199   26.8473   25.9577 H     1665  UNL1665     0.1146
   6659 H          20.3872   27.4592   26.9128 H     1665  UNL1665     0.1146
   6660 H          20.1491   28.0724   25.4241 H     1665  UNL1665     0.1146
   6661 N          19.5778   27.5140   29.3203 N.3   1666  UNL1666    -0.3437
   6662 H          19.7155   26.9204   30.1370 H     1666  UNL1666     0.1146
   6663 H          19.8569   28.4519   29.6044 H     1666  UNL1666     0.1146
   6664 H          20.2675   27.2116   28.6338 H     1666  UNL1666     0.1146
   6665 N          19.6616   30.9408    0.7370 N.3   1667  UNL1667    -0.3437
   6666 H          19.2199   31.2314    1.6081 H     1667  UNL1667     0.1146
   6667 H          20.3872   31.6304    0.5463 H     1667  UNL1667     0.1146
   6668 H          20.1491   30.0707    0.9459 H     1667  UNL1667     0.1146
   6669 N          19.6616   30.9408    3.0257 N.3   1668  UNL1668    -0.3437
   6670 H          19.2199   31.2314    3.8968 H     1668  UNL1668     0.1146
   6671 H          20.3872   31.6304    2.8350 H     1668  UNL1668     0.1146
   6672 H          20.1491   30.0707    3.2346 H     1668  UNL1668     0.1146
   6673 N          19.6616   30.9408    5.3144 N.3   1669  UNL1669    -0.3437
   6674 H          19.2199   31.2314    6.1855 H     1669  UNL1669     0.1146
   6675 H          20.3872   31.6304    5.1237 H     1669  UNL1669     0.1146
   6676 H          20.1491   30.0707    5.5233 H     1669  UNL1669     0.1146
   6677 N          19.7917   29.9408    8.1130 N.3   1670  UNL1670    -0.3437
   6678 H          20.7540   30.2314    7.9456 H     1670  UNL1670     0.1146
   6679 H          19.2047   30.6304    7.6458 H     1670  UNL1670     0.1146
   6680 H          19.6674   29.0707    7.5974 H     1670  UNL1670     0.1146
   6681 N          19.6616   30.9408    9.8918 N.3   1671  UNL1671    -0.3437
   6682 H          19.2199   31.2314   10.7629 H     1671  UNL1671     0.1146
   6683 H          20.3872   31.6304    9.7011 H     1671  UNL1671     0.1146
   6684 H          20.1491   30.0707   10.1007 H     1671  UNL1671     0.1146
   6685 N          19.6616   30.9408   12.1806 N.3   1672  UNL1672    -0.3437
   6686 H          19.2199   31.2314   13.0517 H     1672  UNL1672     0.1146
   6687 H          20.3872   31.6304   11.9899 H     1672  UNL1672     0.1146
   6688 H          20.1491   30.0707   12.3895 H     1672  UNL1672     0.1146
   6689 N          19.8393   31.1952   14.5027 N.3   1673  UNL1673    -0.3437
   6690 H          19.0333   31.1453   15.1242 H     1673  UNL1673     0.1146
   6691 H          20.6581   31.2400   15.1077 H     1673  UNL1673     0.1146
   6692 H          19.8872   30.2928   14.0318 H     1673  UNL1673     0.1146
   6693 N          19.6616   30.9408   16.7580 N.3   1674  UNL1674    -0.3437
   6694 H          19.2199   31.2314   17.6291 H     1674  UNL1674     0.1146
   6695 H          20.3872   31.6304   16.5673 H     1674  UNL1674     0.1146
   6696 H          20.1491   30.0707   16.9669 H     1674  UNL1674     0.1146
   6697 N          19.6616   30.9408   19.0467 N.3   1675  UNL1675    -0.3437
   6698 H          19.2199   31.2314   19.9178 H     1675  UNL1675     0.1146
   6699 H          20.3872   31.6304   18.8560 H     1675  UNL1675     0.1146
   6700 H          20.1491   30.0707   19.2556 H     1675  UNL1675     0.1146
   6701 N          19.6616   30.9408   21.3354 N.3   1676  UNL1676    -0.3437
   6702 H          19.2199   31.2314   22.2065 H     1676  UNL1676     0.1146
   6703 H          20.3872   31.6304   21.1447 H     1676  UNL1676     0.1146
   6704 H          20.1491   30.0707   21.5443 H     1676  UNL1676     0.1146
   6705 N          19.8515   30.7107   23.7016 N.3   1677  UNL1677    -0.3437
   6706 H          18.9169   31.0854   23.8585 H     1677  UNL1677     0.1146
   6707 H          20.3653   31.4367   23.2043 H     1677  UNL1677     0.1146
   6708 H          20.2841   30.6405   24.6215 H     1677  UNL1677     0.1146
   6709 N          19.6616   30.9408   25.9128 N.3   1678  UNL1678    -0.3437
   6710 H          19.2199   31.2314   26.7840 H     1678  UNL1678     0.1146
   6711 H          20.3872   31.6304   25.7221 H     1678  UNL1678     0.1146
   6712 H          20.1491   30.0707   26.1217 H     1678  UNL1678     0.1146
   6713 N          19.6616   29.9408   28.2016 N.3   1679  UNL1679    -0.3437
   6714 H          19.2199   30.2314   29.0727 H     1679  UNL1679     0.1146
   6715 H          20.3872   30.6304   28.0109 H     1679  UNL1679     0.1146
   6716 H          20.1491   29.0707   28.4105 H     1679  UNL1679     0.1146
   6717 N          22.1419    0.8136   -1.2630 N.3   1680  UNL1680    -0.3437
   6718 H          22.6391    0.9936   -0.3919 H     1680  UNL1680     0.1146
   6719 H          22.2602   -0.1804   -1.4537 H     1680  UNL1680     0.1146
   6720 H          21.1531    0.9438   -1.0541 H     1680  UNL1680     0.1146
   6721 N          21.8557    0.8372    1.3590 N.3   1681  UNL1681    -0.3437
   6722 H          21.4140   -0.0346    1.0705 H     1681  UNL1681     0.1146
   6723 H          22.5813    0.5773    2.0256 H     1681  UNL1681     0.1146
   6724 H          22.3432    1.1906    0.5369 H     1681  UNL1681     0.1146
   6725 N          21.8557    0.8372    3.6477 N.3   1682  UNL1682    -0.3437
   6726 H          21.4140   -0.0346    3.3592 H     1682  UNL1682     0.1146
   6727 H          22.5813    0.5773    4.3143 H     1682  UNL1682     0.1146
   6728 H          22.3432    1.1906    2.8256 H     1682  UNL1682     0.1146
   6729 N          21.8003    0.8013    5.8492 N.3   1683  UNL1683    -0.3437
   6730 H          22.2164    0.5827    6.7534 H     1683  UNL1683     0.1146
   6731 H          22.5243    1.2799    5.3152 H     1683  UNL1683     0.1146
   6732 H          21.6534   -0.0933    5.3840 H     1683  UNL1683     0.1146
   6733 N          21.8342    0.4424    8.1501 N.3   1684  UNL1684    -0.3437
   6734 H          21.8926    1.1007    8.9257 H     1684  UNL1684     0.1146
   6735 H          21.7093    1.0071    7.3112 H     1684  UNL1684     0.1146
   6736 H          22.7582    0.0204    8.0696 H     1684  UNL1684     0.1146
   6737 N          21.8557    0.8372   10.5139 N.3   1685  UNL1685    -0.3437
   6738 H          21.4140   -0.0346   10.2254 H     1685  UNL1685     0.1146
   6739 H          22.5813    0.5773   11.1805 H     1685  UNL1685     0.1146
   6740 H          22.3432    1.1906    9.6918 H     1685  UNL1685     0.1146
   6741 N          21.8557    0.8372   12.8026 N.3   1686  UNL1686    -0.3437
   6742 H          21.4140   -0.0346   12.5141 H     1686  UNL1686     0.1146
   6743 H          22.5813    0.5773   13.4692 H     1686  UNL1686     0.1146
   6744 H          22.3432    1.1906   11.9805 H     1686  UNL1686     0.1146
   6745 N          21.8557    0.8372   15.0913 N.3   1687  UNL1687    -0.3437
   6746 H          21.4140   -0.0346   14.8028 H     1687  UNL1687     0.1146
   6747 H          22.5813    0.5773   15.7579 H     1687  UNL1687     0.1146
   6748 H          22.3432    1.1906   14.2692 H     1687  UNL1687     0.1146
   6749 N          21.8557    0.8372   17.3800 N.3   1688  UNL1688    -0.3437
   6750 H          21.4140   -0.0346   17.0915 H     1688  UNL1688     0.1146
   6751 H          22.5813    0.5773   18.0466 H     1688  UNL1688     0.1146
   6752 H          22.3432    1.1906   16.5579 H     1688  UNL1688     0.1146
   6753 N          22.0929    0.4240   21.3639 N.3   1689  UNL1689    -0.3437
   6754 H          21.1485    0.4260   21.7464 H     1689  UNL1689     0.1146
   6755 H          22.2326    1.3471   20.9556 H     1689  UNL1689     0.1146
   6756 H          22.7204    0.3735   22.1652 H     1689  UNL1689     0.1146
   6757 N          22.0623    0.8305   23.6187 N.3   1690  UNL1690    -0.3437
   6758 H          21.4409    1.1534   24.3589 H     1690  UNL1690     0.1146
   6759 H          22.9685    0.6782   24.0592 H     1690  UNL1690     0.1146
   6760 H          21.7227   -0.0916   23.3490 H     1690  UNL1690     0.1146
   6761 N          22.0623    0.8305   25.9074 N.3   1691  UNL1691    -0.3437
   6762 H          21.4409    1.1534   26.6476 H     1691  UNL1691     0.1146
   6763 H          22.9685    0.6782   26.3480 H     1691  UNL1691     0.1146
   6764 H          21.7227   -0.0916   25.6377 H     1691  UNL1691     0.1146
   6765 N          21.7719    0.6321   29.3203 N.3   1692  UNL1692    -0.3437
   6766 H          21.9096    0.0386   30.1370 H     1692  UNL1692     0.1146
   6767 H          22.0511    1.5701   29.6044 H     1692  UNL1692     0.1146
   6768 H          22.4617    0.3298   28.6338 H     1692  UNL1692     0.1146
   6769 N          21.8557    1.0589    0.7370 N.3   1693  UNL1693    -0.3437
   6770 H          21.4140    1.3495    1.6081 H     1693  UNL1693     0.1146
   6771 H          22.5813    1.7485    0.5463 H     1693  UNL1693     0.1146
   6772 H          22.3432    0.1888    0.9459 H     1693  UNL1693     0.1146
   6773 N          21.8557    2.9248    3.4031 N.3   1694  UNL1694    -0.3437
   6774 H          21.4140    3.4488    2.6490 H     1694  UNL1694     0.1146
   6775 H          22.5813    2.3593    2.9648 H     1694  UNL1694     0.1146
   6776 H          22.3432    3.6129    3.9752 H     1694  UNL1694     0.1146
   6777 N          21.8557    3.2810    5.6477 N.3   1695  UNL1695    -0.3437
   6778 H          21.4140    2.4092    5.3592 H     1695  UNL1695     0.1146
   6779 H          22.5813    3.0211    6.3143 H     1695  UNL1695     0.1146
   6780 H          22.3432    3.6344    4.8256 H     1695  UNL1695     0.1146
   6781 N          21.8557    3.2810    7.9365 N.3   1696  UNL1696    -0.3437
   6782 H          21.4140    2.4092    7.6479 H     1696  UNL1696     0.1146
   6783 H          22.5813    3.0211    8.6031 H     1696  UNL1696     0.1146
   6784 H          22.3432    3.6344    7.1144 H     1696  UNL1696     0.1146
   6785 N          21.8557    3.2810   10.2252 N.3   1697  UNL1697    -0.3437
   6786 H          21.4140    2.4092    9.9367 H     1697  UNL1697     0.1146
   6787 H          22.5813    3.0211   10.8918 H     1697  UNL1697     0.1146
   6788 H          22.3432    3.6344    9.4031 H     1697  UNL1697     0.1146
   6789 N          21.8557    3.2810   12.5139 N.3   1698  UNL1698    -0.3437
   6790 H          21.4140    2.4092   12.2254 H     1698  UNL1698     0.1146
   6791 H          22.5813    3.0211   13.1805 H     1698  UNL1698     0.1146
   6792 H          22.3432    3.6344   11.6918 H     1698  UNL1698     0.1146
   6793 N          21.8557    3.2810   14.8026 N.3   1699  UNL1699    -0.3437
   6794 H          21.4140    2.4092   14.5141 H     1699  UNL1699     0.1146
   6795 H          22.5813    3.0211   15.4692 H     1699  UNL1699     0.1146
   6796 H          22.3432    3.6344   13.9805 H     1699  UNL1699     0.1146
   6797 N          21.8557    3.2810   17.0913 N.3   1700  UNL1700    -0.3437
   6798 H          21.4140    2.4092   16.8028 H     1700  UNL1700     0.1146
   6799 H          22.5813    3.0211   17.7579 H     1700  UNL1700     0.1146
   6800 H          22.3432    3.6344   16.2692 H     1700  UNL1700     0.1146
   6801 N          21.8557    3.0589   19.0467 N.3   1701  UNL1701    -0.3437
   6802 H          21.4140    3.3495   19.9178 H     1701  UNL1701     0.1146
   6803 H          22.5813    3.7485   18.8560 H     1701  UNL1701     0.1146
   6804 H          22.3432    2.1888   19.2556 H     1701  UNL1701     0.1146
   6805 N          22.0623    3.2743   21.3300 N.3   1702  UNL1702    -0.3437
   6806 H          21.4409    3.5972   22.0702 H     1702  UNL1702     0.1146
   6807 H          22.9685    3.1220   21.7705 H     1702  UNL1702     0.1146
   6808 H          21.7227    2.3523   21.0603 H     1702  UNL1702     0.1146
   6809 N          21.8557    3.0589   23.6241 N.3   1703  UNL1703    -0.3437
   6810 H          21.4140    3.3495   24.4952 H     1703  UNL1703     0.1146
   6811 H          22.5813    3.7485   23.4334 H     1703  UNL1703     0.1146
   6812 H          22.3432    2.1888   23.8330 H     1703  UNL1703     0.1146
   6813 N          21.8557    3.2810   26.2462 N.3   1704  UNL1704    -0.3437
   6814 H          21.4140    2.4092   25.9577 H     1704  UNL1704     0.1146
   6815 H          22.5813    3.0211   26.9128 H     1704  UNL1704     0.1146
   6816 H          22.3432    3.6344   25.4241 H     1704  UNL1704     0.1146
   6817 N          21.7719    3.0759   29.3203 N.3   1705  UNL1705    -0.3437
   6818 H          21.9096    2.4824   30.1370 H     1705  UNL1705     0.1146
   6819 H          22.0511    4.0139   29.6044 H     1705  UNL1705     0.1146
   6820 H          22.4617    2.7736   28.6338 H     1705  UNL1705     0.1146
   6821 N          21.8557    3.3686    1.1144 N.3   1706  UNL1706    -0.3437
   6822 H          21.4140    3.8926    0.3603 H     1706  UNL1706     0.1146
   6823 H          22.5813    2.8031    0.6761 H     1706  UNL1706     0.1146
   6824 H          22.3432    4.0567    1.6865 H     1706  UNL1706     0.1146
   6825 N          21.7719    5.5197    3.1444 N.3   1707  UNL1707    -0.3437
   6826 H          21.9097    4.9262    3.9612 H     1707  UNL1707     0.1146
   6827 H          22.0511    6.4577    3.4286 H     1707  UNL1707     0.1146
   6828 H          22.4617    5.2174    2.4580 H     1707  UNL1707     0.1146
   6829 N          21.9859    5.5027    5.8243 N.3   1708  UNL1708    -0.3437
   6830 H          22.9481    5.7933    5.6568 H     1708  UNL1708     0.1146
   6831 H          21.3989    6.1923    5.3571 H     1708  UNL1708     0.1146
   6832 H          21.8615    4.6326    5.3087 H     1708  UNL1708     0.1146
   6833 N          21.8557    5.5027    7.6031 N.3   1709  UNL1709    -0.3437
   6834 H          21.4140    5.7933    8.4742 H     1709  UNL1709     0.1146
   6835 H          22.5813    6.1923    7.4124 H     1709  UNL1709     0.1146
   6836 H          22.3432    4.6326    7.8120 H     1709  UNL1709     0.1146
   6837 N          21.8557    5.5027    9.8918 N.3   1710  UNL1710    -0.3437
   6838 H          21.4140    5.7933   10.7629 H     1710  UNL1710     0.1146
   6839 H          22.5813    6.1923    9.7011 H     1710  UNL1710     0.1146
   6840 H          22.3432    4.6326   10.1007 H     1710  UNL1710     0.1146
   6841 N          21.8557    5.5027   12.1806 N.3   1711  UNL1711    -0.3437
   6842 H          21.4140    5.7933   13.0517 H     1711  UNL1711     0.1146
   6843 H          22.5813    6.1923   11.9899 H     1711  UNL1711     0.1146
   6844 H          22.3432    4.6326   12.3895 H     1711  UNL1711     0.1146
   6845 N          21.8557    5.5027   14.4693 N.3   1712  UNL1712    -0.3437
   6846 H          21.4140    5.7933   15.3404 H     1712  UNL1712     0.1146
   6847 H          22.5813    6.1923   14.2786 H     1712  UNL1712     0.1146
   6848 H          22.3432    4.6326   14.6782 H     1712  UNL1712     0.1146
   6849 N          21.8557    5.5027   16.7580 N.3   1713  UNL1713    -0.3437
   6850 H          21.4140    5.7933   17.6291 H     1713  UNL1713     0.1146
   6851 H          22.5813    6.1923   16.5673 H     1713  UNL1713     0.1146
   6852 H          22.3432    4.6326   16.9669 H     1713  UNL1713     0.1146
   6853 N          21.8557    5.3686   19.4241 N.3   1714  UNL1714    -0.3437
   6854 H          21.4140    5.8926   18.6700 H     1714  UNL1714     0.1146
   6855 H          22.5813    4.8031   18.9858 H     1714  UNL1714     0.1146
   6856 H          22.3432    6.0567   19.9962 H     1714  UNL1714     0.1146
   6857 N          21.8193    5.4099   21.4152 N.3   1715  UNL1715    -0.3437
   6858 H          21.9470    5.0267   22.3508 H     1715  UNL1715     0.1146
   6859 H          21.7242    6.4174   21.5350 H     1715  UNL1715     0.1146
   6860 H          22.7039    5.2670   20.9300 H     1715  UNL1715     0.1146
   6861 N          21.8557    5.3686   24.0016 N.3   1716  UNL1716    -0.3437
   6862 H          21.4140    5.8926   23.2474 H     1716  UNL1716     0.1146
   6863 H          22.5813    4.8031   23.5632 H     1716  UNL1716     0.1146
   6864 H          22.3432    6.0567   24.5736 H     1716  UNL1716     0.1146
   6865 N          21.8557    5.7248   26.2462 N.3   1717  UNL1717    -0.3437
   6866 H          21.4140    4.8530   25.9577 H     1717  UNL1717     0.1146
   6867 H          22.5813    5.4649   26.9128 H     1717  UNL1717     0.1146
   6868 H          22.3432    6.0782   25.4241 H     1717  UNL1717     0.1146
   6869 N          21.7719    5.5197   29.3203 N.3   1718  UNL1718    -0.3437
   6870 H          21.9096    4.9262   30.1370 H     1718  UNL1718     0.1146
   6871 H          22.0511    6.4577   29.6044 H     1718  UNL1718     0.1146
   6872 H          22.4617    5.2174   28.6338 H     1718  UNL1718     0.1146
   6873 N          21.8557    5.9465    0.7370 N.3   1719  UNL1719    -0.3437
   6874 H          21.4140    6.2371    1.6081 H     1719  UNL1719     0.1146
   6875 H          22.5813    6.6361    0.5463 H     1719  UNL1719     0.1146
   6876 H          22.3432    5.0764    0.9459 H     1719  UNL1719     0.1146
   6877 N          21.8557    7.8124    3.4031 N.3   1720  UNL1720    -0.3437
   6878 H          21.4140    8.3364    2.6490 H     1720  UNL1720     0.1146
   6879 H          22.5813    7.2469    2.9648 H     1720  UNL1720     0.1146
   6880 H          22.3432    8.5005    3.9752 H     1720  UNL1720     0.1146
   6881 N          21.9859    7.9465    5.8243 N.3   1721  UNL1721    -0.3437
   6882 H          22.9481    8.2371    5.6568 H     1721  UNL1721     0.1146
   6883 H          21.3989    8.6361    5.3571 H     1721  UNL1721     0.1146
   6884 H          21.8615    7.0764    5.3087 H     1721  UNL1721     0.1146
   6885 N          21.8557    8.1686    7.9365 N.3   1722  UNL1722    -0.3437
   6886 H          21.4140    7.2968    7.6479 H     1722  UNL1722     0.1146
   6887 H          22.5813    7.9087    8.6031 H     1722  UNL1722     0.1146
   6888 H          22.3432    8.5220    7.1144 H     1722  UNL1722     0.1146
   6889 N          21.8557    8.1686   10.2252 N.3   1723  UNL1723    -0.3437
   6890 H          21.4140    7.2968    9.9367 H     1723  UNL1723     0.1146
   6891 H          22.5813    7.9087   10.8918 H     1723  UNL1723     0.1146
   6892 H          22.3432    8.5220    9.4031 H     1723  UNL1723     0.1146
   6893 N          21.8557    7.9465   12.1806 N.3   1724  UNL1724    -0.3437
   6894 H          21.4140    8.2371   13.0517 H     1724  UNL1724     0.1146
   6895 H          22.5813    8.6361   11.9899 H     1724  UNL1724     0.1146
   6896 H          22.3432    7.0764   12.3895 H     1724  UNL1724     0.1146
   6897 N          21.8557    7.8124   14.8467 N.3   1725  UNL1725    -0.3437
   6898 H          21.4140    8.3364   14.0926 H     1725  UNL1725     0.1146
   6899 H          22.5813    7.2469   14.4084 H     1725  UNL1725     0.1146
   6900 H          22.3432    8.5005   15.4188 H     1725  UNL1725     0.1146
   6901 N          21.8557    8.1686   17.0913 N.3   1726  UNL1726    -0.3437
   6902 H          21.4140    7.2968   16.8028 H     1726  UNL1726     0.1146
   6903 H          22.5813    7.9087   17.7579 H     1726  UNL1726     0.1146
   6904 H          22.3432    8.5220   16.2692 H     1726  UNL1726     0.1146
   6905 N          21.8557    8.1686   19.3800 N.3   1727  UNL1727    -0.3437
   6906 H          21.4140    7.2968   19.0915 H     1727  UNL1727     0.1146
   6907 H          22.5813    7.9087   20.0466 H     1727  UNL1727     0.1146
   6908 H          22.3432    8.5220   18.5579 H     1727  UNL1727     0.1146
   6909 N          21.8193    7.8537   21.4152 N.3   1728  UNL1728    -0.3437
   6910 H          21.9470    7.4705   22.3508 H     1728  UNL1728     0.1146
   6911 H          21.7242    8.8612   21.5350 H     1728  UNL1728     0.1146
   6912 H          22.7039    7.7108   20.9300 H     1728  UNL1728     0.1146
   6913 N          21.8557    7.8124   24.0016 N.3   1729  UNL1729    -0.3437
   6914 H          21.4140    8.3364   23.2474 H     1729  UNL1729     0.1146
   6915 H          22.5813    7.2469   23.5632 H     1729  UNL1729     0.1146
   6916 H          22.3432    8.5005   24.5736 H     1729  UNL1729     0.1146
   6917 N          21.8557    8.1686   26.2462 N.3   1730  UNL1730    -0.3437
   6918 H          21.4140    7.2968   25.9577 H     1730  UNL1730     0.1146
   6919 H          22.5813    7.9087   26.9128 H     1730  UNL1730     0.1146
   6920 H          22.3432    8.5220   25.4241 H     1730  UNL1730     0.1146
   6921 N          21.7719    7.9635   29.3203 N.3   1731  UNL1731    -0.3437
   6922 H          21.9096    7.3700   30.1370 H     1731  UNL1731     0.1146
   6923 H          22.0511    8.9015   29.6044 H     1731  UNL1731     0.1146
   6924 H          22.4617    7.6612   28.6338 H     1731  UNL1731     0.1146
   6925 N          21.8557   10.6125    1.0703 N.3   1732  UNL1732    -0.3437
   6926 H          21.4140    9.7407    0.7818 H     1732  UNL1732     0.1146
   6927 H          22.5813   10.3525    1.7369 H     1732  UNL1732     0.1146
   6928 H          22.3432   10.9658    0.2482 H     1732  UNL1732     0.1146
   6929 N          21.8557   10.6125    3.3590 N.3   1733  UNL1733    -0.3437
   6930 H          21.4140    9.7407    3.0705 H     1733  UNL1733     0.1146
   6931 H          22.5813   10.3525    4.0256 H     1733  UNL1733     0.1146
   6932 H          22.3432   10.9658    2.5369 H     1733  UNL1733     0.1146
   6933 N          21.8557   10.6125    5.6477 N.3   1734  UNL1734    -0.3437
   6934 H          21.4140    9.7407    5.3592 H     1734  UNL1734     0.1146
   6935 H          22.5813   10.3525    6.3143 H     1734  UNL1734     0.1146
   6936 H          22.3432   10.9658    4.8256 H     1734  UNL1734     0.1146
   6937 N          21.8557   10.6125    7.9365 N.3   1735  UNL1735    -0.3437
   6938 H          21.4140    9.7407    7.6479 H     1735  UNL1735     0.1146
   6939 H          22.5813   10.3525    8.6031 H     1735  UNL1735     0.1146
   6940 H          22.3432   10.9658    7.1144 H     1735  UNL1735     0.1146
   6941 N          21.8557   10.6125   10.2252 N.3   1736  UNL1736    -0.3437
   6942 H          21.4140    9.7407    9.9367 H     1736  UNL1736     0.1146
   6943 H          22.5813   10.3525   10.8918 H     1736  UNL1736     0.1146
   6944 H          22.3432   10.9658    9.4031 H     1736  UNL1736     0.1146
   6945 N          21.8557   10.6125   12.5139 N.3   1737  UNL1737    -0.3437
   6946 H          21.4140    9.7407   12.2254 H     1737  UNL1737     0.1146
   6947 H          22.5813   10.3525   13.1805 H     1737  UNL1737     0.1146
   6948 H          22.3432   10.9658   11.6918 H     1737  UNL1737     0.1146
   6949 N          21.8557   10.6125   14.8026 N.3   1738  UNL1738    -0.3437
   6950 H          21.4140    9.7407   14.5141 H     1738  UNL1738     0.1146
   6951 H          22.5813   10.3525   15.4692 H     1738  UNL1738     0.1146
   6952 H          22.3432   10.9658   13.9805 H     1738  UNL1738     0.1146
   6953 N          21.8557   10.6125   17.0913 N.3   1739  UNL1739    -0.3437
   6954 H          21.4140    9.7407   16.8028 H     1739  UNL1739     0.1146
   6955 H          22.5813   10.3525   17.7579 H     1739  UNL1739     0.1146
   6956 H          22.3432   10.9658   16.2692 H     1739  UNL1739     0.1146
   6957 N          21.8557   10.6125   19.3800 N.3   1740  UNL1740    -0.3437
   6958 H          21.4140    9.7407   19.0915 H     1740  UNL1740     0.1146
   6959 H          22.5813   10.3525   20.0466 H     1740  UNL1740     0.1146
   6960 H          22.3432   10.9658   18.5579 H     1740  UNL1740     0.1146
   6961 N          21.8557   10.6125   21.6687 N.3   1741  UNL1741    -0.3437
   6962 H          21.4140    9.7407   21.3802 H     1741  UNL1741     0.1146
   6963 H          22.5813   10.3525   22.3353 H     1741  UNL1741     0.1146
   6964 H          22.3432   10.9658   20.8466 H     1741  UNL1741     0.1146
   6965 N          21.8557   10.6125   23.9575 N.3   1742  UNL1742    -0.3437
   6966 H          21.4140    9.7407   23.6690 H     1742  UNL1742     0.1146
   6967 H          22.5813   10.3525   24.6241 H     1742  UNL1742     0.1146
   6968 H          22.3432   10.9658   23.1354 H     1742  UNL1742     0.1146
   6969 N          21.8557   10.6125   26.2462 N.3   1743  UNL1743    -0.3437
   6970 H          21.4140    9.7407   25.9577 H     1743  UNL1743     0.1146
   6971 H          22.5813   10.3525   26.9128 H     1743  UNL1743     0.1146
   6972 H          22.3432   10.9658   25.4241 H     1743  UNL1743     0.1146
   6973 N          21.7719   10.4074   29.3203 N.3   1744  UNL1744    -0.3437
   6974 H          21.9096    9.8138   30.1370 H     1744  UNL1744     0.1146
   6975 H          22.0511   11.3453   29.6044 H     1744  UNL1744     0.1146
   6976 H          22.4617   10.1050   28.6338 H     1744  UNL1744     0.1146
   6977 N          21.8557   13.0563    1.0703 N.3   1745  UNL1745    -0.3437
   6978 H          21.4140   12.1845    0.7818 H     1745  UNL1745     0.1146
   6979 H          22.5813   12.7963    1.7369 H     1745  UNL1745     0.1146
   6980 H          22.3432   13.4096    0.2482 H     1745  UNL1745     0.1146
   6981 N          21.8557   13.0563    3.3590 N.3   1746  UNL1746    -0.3437
   6982 H          21.4140   12.1845    3.0705 H     1746  UNL1746     0.1146
   6983 H          22.5813   12.7963    4.0256 H     1746  UNL1746     0.1146
   6984 H          22.3432   13.4096    2.5369 H     1746  UNL1746     0.1146
   6985 N          21.8557   13.0563    5.6477 N.3   1747  UNL1747    -0.3437
   6986 H          21.4140   12.1845    5.3592 H     1747  UNL1747     0.1146
   6987 H          22.5813   12.7963    6.3143 H     1747  UNL1747     0.1146
   6988 H          22.3432   13.4096    4.8256 H     1747  UNL1747     0.1146
   6989 N          21.8557   13.0563    7.9365 N.3   1748  UNL1748    -0.3437
   6990 H          21.4140   12.1845    7.6479 H     1748  UNL1748     0.1146
   6991 H          22.5813   12.7963    8.6031 H     1748  UNL1748     0.1146
   6992 H          22.3432   13.4096    7.1144 H     1748  UNL1748     0.1146
   6993 N          21.8557   13.0563   10.2252 N.3   1749  UNL1749    -0.3437
   6994 H          21.4140   12.1845    9.9367 H     1749  UNL1749     0.1146
   6995 H          22.5813   12.7963   10.8918 H     1749  UNL1749     0.1146
   6996 H          22.3432   13.4096    9.4031 H     1749  UNL1749     0.1146
   6997 N          21.8557   12.8341   12.1806 N.3   1750  UNL1750    -0.3437
   6998 H          21.4140   13.1247   13.0517 H     1750  UNL1750     0.1146
   6999 H          22.5813   13.5237   11.9899 H     1750  UNL1750     0.1146
   7000 H          22.3432   11.9640   12.3895 H     1750  UNL1750     0.1146
   7001 N          22.0623   13.0496   14.4638 N.3   1751  UNL1751    -0.3437
   7002 H          21.4409   13.3724   15.2040 H     1751  UNL1751     0.1146
   7003 H          22.9685   12.8972   14.9044 H     1751  UNL1751     0.1146
   7004 H          21.7227   12.1275   14.1941 H     1751  UNL1751     0.1146
   7005 N          22.0623   13.0496   16.7525 N.3   1752  UNL1752    -0.3437
   7006 H          21.4409   13.3724   17.4928 H     1752  UNL1752     0.1146
   7007 H          22.9685   12.8972   17.1931 H     1752  UNL1752     0.1146
   7008 H          21.7227   12.1275   16.4829 H     1752  UNL1752     0.1146
   7009 N          22.0623   13.0496   19.0413 N.3   1753  UNL1753    -0.3437
   7010 H          21.4409   13.3724   19.7815 H     1753  UNL1753     0.1146
   7011 H          22.9685   12.8972   19.4818 H     1753  UNL1753     0.1146
   7012 H          21.7227   12.1275   18.7716 H     1753  UNL1753     0.1146
   7013 N          21.8557   12.8341   21.3354 N.3   1754  UNL1754    -0.3437
   7014 H          21.4140   13.1247   22.2065 H     1754  UNL1754     0.1146
   7015 H          22.5813   13.5237   21.1447 H     1754  UNL1754     0.1146
   7016 H          22.3432   11.9640   21.5443 H     1754  UNL1754     0.1146
   7017 N          22.0623   13.0496   23.6187 N.3   1755  UNL1755    -0.3437
   7018 H          21.4409   13.3724   24.3589 H     1755  UNL1755     0.1146
   7019 H          22.9685   12.8972   24.0592 H     1755  UNL1755     0.1146
   7020 H          21.7227   12.1275   23.3490 H     1755  UNL1755     0.1146
   7021 N          22.0623   13.0496   25.9074 N.3   1756  UNL1756    -0.3437
   7022 H          21.4409   13.3724   26.6476 H     1756  UNL1756     0.1146
   7023 H          22.9685   12.8972   26.3480 H     1756  UNL1756     0.1146
   7024 H          21.7227   12.1275   25.6377 H     1756  UNL1756     0.1146
   7025 N          21.7719   12.8512   29.3203 N.3   1757  UNL1757    -0.3437
   7026 H          21.9096   12.2576   30.1370 H     1757  UNL1757     0.1146
   7027 H          22.0511   13.7891   29.6044 H     1757  UNL1757     0.1146
   7028 H          22.4617   12.5488   28.6338 H     1757  UNL1757     0.1146
   7029 N          21.8557   15.5001    1.0703 N.3   1758  UNL1758    -0.3437
   7030 H          21.4140   14.6283    0.7818 H     1758  UNL1758     0.1146
   7031 H          22.5813   15.2401    1.7369 H     1758  UNL1758     0.1146
   7032 H          22.3432   15.8534    0.2482 H     1758  UNL1758     0.1146
   7033 N          21.8557   15.5001    3.3590 N.3   1759  UNL1759    -0.3437
   7034 H          21.4140   14.6283    3.0705 H     1759  UNL1759     0.1146
   7035 H          22.5813   15.2401    4.0256 H     1759  UNL1759     0.1146
   7036 H          22.3432   15.8534    2.5369 H     1759  UNL1759     0.1146
   7037 N          21.8557   15.5001    5.6477 N.3   1760  UNL1760    -0.3437
   7038 H          21.4140   14.6283    5.3592 H     1760  UNL1760     0.1146
   7039 H          22.5813   15.2401    6.3143 H     1760  UNL1760     0.1146
   7040 H          22.3432   15.8534    4.8256 H     1760  UNL1760     0.1146
   7041 N          21.8557   15.5001    7.9365 N.3   1761  UNL1761    -0.3437
   7042 H          21.4140   14.6283    7.6479 H     1761  UNL1761     0.1146
   7043 H          22.5813   15.2401    8.6031 H     1761  UNL1761     0.1146
   7044 H          22.3432   15.8534    7.1144 H     1761  UNL1761     0.1146
   7045 N          21.8557   15.5001   10.2252 N.3   1762  UNL1762    -0.3437
   7046 H          21.4140   14.6283    9.9367 H     1762  UNL1762     0.1146
   7047 H          22.5813   15.2401   10.8918 H     1762  UNL1762     0.1146
   7048 H          22.3432   15.8534    9.4031 H     1762  UNL1762     0.1146
   7049 N          21.8193   15.1851   12.2604 N.3   1763  UNL1763    -0.3437
   7050 H          21.9470   14.8019   13.1959 H     1763  UNL1763     0.1146
   7051 H          21.7242   16.1926   12.3801 H     1763  UNL1763     0.1146
   7052 H          22.7039   15.0423   11.7751 H     1763  UNL1763     0.1146
   7053 N          21.8557   15.5001   14.8026 N.3   1764  UNL1764    -0.3437
   7054 H          21.4140   14.6283   14.5141 H     1764  UNL1764     0.1146
   7055 H          22.5813   15.2401   15.4692 H     1764  UNL1764     0.1146
   7056 H          22.3432   15.8534   13.9805 H     1764  UNL1764     0.1146
   7057 N          21.8557   15.5001   17.0913 N.3   1765  UNL1765    -0.3437
   7058 H          21.4140   14.6283   16.8028 H     1765  UNL1765     0.1146
   7059 H          22.5813   15.2401   17.7579 H     1765  UNL1765     0.1146
   7060 H          22.3432   15.8534   16.2692 H     1765  UNL1765     0.1146
   7061 N          21.8557   15.5001   19.3800 N.3   1766  UNL1766    -0.3437
   7062 H          21.4140   14.6283   19.0915 H     1766  UNL1766     0.1146
   7063 H          22.5813   15.2401   20.0466 H     1766  UNL1766     0.1146
   7064 H          22.3432   15.8534   18.5579 H     1766  UNL1766     0.1146
   7065 N          21.8193   15.1851   21.4152 N.3   1767  UNL1767    -0.3437
   7066 H          21.9470   14.8019   22.3508 H     1767  UNL1767     0.1146
   7067 H          21.7242   16.1926   21.5350 H     1767  UNL1767     0.1146
   7068 H          22.7039   15.0423   20.9300 H     1767  UNL1767     0.1146
   7069 N          21.8557   15.1438   24.0016 N.3   1768  UNL1768    -0.3437
   7070 H          21.4140   15.6678   23.2474 H     1768  UNL1768     0.1146
   7071 H          22.5813   14.5784   23.5632 H     1768  UNL1768     0.1146
   7072 H          22.3432   15.8319   24.5736 H     1768  UNL1768     0.1146
   7073 N          21.9859   15.2779   26.4227 N.3   1769  UNL1769    -0.3437
   7074 H          22.9481   15.5685   26.2553 H     1769  UNL1769     0.1146
   7075 H          21.3989   15.9675   25.9555 H     1769  UNL1769     0.1146
   7076 H          21.8615   14.4078   25.9071 H     1769  UNL1769     0.1146
   7077 N          21.7719   15.2950   29.3203 N.3   1770  UNL1770    -0.3437
   7078 H          21.9096   14.7014   30.1370 H     1770  UNL1770     0.1146
   7079 H          22.0511   16.2329   29.6044 H     1770  UNL1770     0.1146
   7080 H          22.4617   14.9926   28.6338 H     1770  UNL1770     0.1146
   7081 N          21.8557   17.7217    0.7370 N.3   1771  UNL1771    -0.3437
   7082 H          21.4140   18.0123    1.6081 H     1771  UNL1771     0.1146
   7083 H          22.5813   18.4114    0.5463 H     1771  UNL1771     0.1146
   7084 H          22.3432   16.8517    0.9459 H     1771  UNL1771     0.1146
   7085 N          21.8557   17.7217    3.0257 N.3   1772  UNL1772    -0.3437
   7086 H          21.4140   18.0123    3.8968 H     1772  UNL1772     0.1146
   7087 H          22.5813   18.4114    2.8350 H     1772  UNL1772     0.1146
   7088 H          22.3432   16.8517    3.2346 H     1772  UNL1772     0.1146
   7089 N          21.8557   17.7217    5.3144 N.3   1773  UNL1773    -0.3437
   7090 H          21.4140   18.0123    6.1855 H     1773  UNL1773     0.1146
   7091 H          22.5813   18.4114    5.1237 H     1773  UNL1773     0.1146
   7092 H          22.3432   16.8517    5.5233 H     1773  UNL1773     0.1146
   7093 N          21.8557   17.7217    7.6031 N.3   1774  UNL1774    -0.3437
   7094 H          21.4140   18.0123    8.4742 H     1774  UNL1774     0.1146
   7095 H          22.5813   18.4114    7.4124 H     1774  UNL1774     0.1146
   7096 H          22.3432   16.8517    7.8120 H     1774  UNL1774     0.1146
   7097 N          21.8557   17.7217    9.8918 N.3   1775  UNL1775    -0.3437
   7098 H          21.4140   18.0123   10.7629 H     1775  UNL1775     0.1146
   7099 H          22.5813   18.4114    9.7011 H     1775  UNL1775     0.1146
   7100 H          22.3432   16.8517   10.1007 H     1775  UNL1775     0.1146
   7101 N          21.8557   17.7217   12.1806 N.3   1776  UNL1776    -0.3437
   7102 H          21.4140   18.0123   13.0517 H     1776  UNL1776     0.1146
   7103 H          22.5813   18.4114   11.9899 H     1776  UNL1776     0.1146
   7104 H          22.3432   16.8517   12.3895 H     1776  UNL1776     0.1146
   7105 N          21.8557   17.7217   14.4693 N.3   1777  UNL1777    -0.3437
   7106 H          21.4140   18.0123   15.3404 H     1777  UNL1777     0.1146
   7107 H          22.5813   18.4114   14.2786 H     1777  UNL1777     0.1146
   7108 H          22.3432   16.8517   14.6782 H     1777  UNL1777     0.1146
   7109 N          21.8557   17.7217   16.7580 N.3   1778  UNL1778    -0.3437
   7110 H          21.4140   18.0123   17.6291 H     1778  UNL1778     0.1146
   7111 H          22.5813   18.4114   16.5673 H     1778  UNL1778     0.1146
   7112 H          22.3432   16.8517   16.9669 H     1778  UNL1778     0.1146
   7113 N          21.8557   17.7217   19.0467 N.3   1779  UNL1779    -0.3437
   7114 H          21.4140   18.0123   19.9178 H     1779  UNL1779     0.1146
   7115 H          22.5813   18.4114   18.8560 H     1779  UNL1779     0.1146
   7116 H          22.3432   16.8517   19.2556 H     1779  UNL1779     0.1146
   7117 N          21.8557   17.7217   21.3354 N.3   1780  UNL1780    -0.3437
   7118 H          21.4140   18.0123   22.2065 H     1780  UNL1780     0.1146
   7119 H          22.5813   18.4114   21.1447 H     1780  UNL1780     0.1146
   7120 H          22.3432   16.8517   21.5443 H     1780  UNL1780     0.1146
   7121 N          22.0623   17.9372   23.6187 N.3   1781  UNL1781    -0.3437
   7122 H          21.4409   18.2600   24.3589 H     1781  UNL1781     0.1146
   7123 H          22.9685   17.7848   24.0592 H     1781  UNL1781     0.1146
   7124 H          21.7227   17.0151   23.3490 H     1781  UNL1781     0.1146
   7125 N          22.0623   17.9372   25.9074 N.3   1782  UNL1782    -0.3437
   7126 H          21.4409   18.2600   26.6476 H     1782  UNL1782     0.1146
   7127 H          22.9685   17.7848   26.3480 H     1782  UNL1782     0.1146
   7128 H          21.7227   17.0151   25.6377 H     1782  UNL1782     0.1146
   7129 N          21.7719   17.7388   29.3203 N.3   1783  UNL1783    -0.3437
   7130 H          21.9096   17.1452   30.1370 H     1783  UNL1783     0.1146
   7131 H          22.0511   18.6767   29.6044 H     1783  UNL1783     0.1146
   7132 H          22.4617   17.4364   28.6338 H     1783  UNL1783     0.1146
   7133 N          21.8193   20.0727    0.8168 N.3   1784  UNL1784    -0.3437
   7134 H          21.9470   19.6895    1.7523 H     1784  UNL1784     0.1146
   7135 H          21.7242   21.0802    0.9365 H     1784  UNL1784     0.1146
   7136 H          22.7039   19.9299    0.3316 H     1784  UNL1784     0.1146
   7137 N          21.8193   20.0727    3.1055 N.3   1785  UNL1785    -0.3437
   7138 H          21.9470   19.6895    4.0410 H     1785  UNL1785     0.1146
   7139 H          21.7242   21.0802    3.2252 H     1785  UNL1785     0.1146
   7140 H          22.7039   19.9299    2.6203 H     1785  UNL1785     0.1146
   7141 N          21.8193   20.0727    5.3942 N.3   1786  UNL1786    -0.3437
   7142 H          21.9470   19.6895    6.3298 H     1786  UNL1786     0.1146
   7143 H          21.7242   21.0802    5.5140 H     1786  UNL1786     0.1146
   7144 H          22.7039   19.9299    4.9090 H     1786  UNL1786     0.1146
   7145 N          21.8557   20.3877    7.9365 N.3   1787  UNL1787    -0.3437
   7146 H          21.4140   19.5159    7.6479 H     1787  UNL1787     0.1146
   7147 H          22.5813   20.1278    8.6031 H     1787  UNL1787     0.1146
   7148 H          22.3432   20.7410    7.1144 H     1787  UNL1787     0.1146
   7149 N          21.8557   20.3877   10.2252 N.3   1788  UNL1788    -0.3437
   7150 H          21.4140   19.5159    9.9367 H     1788  UNL1788     0.1146
   7151 H          22.5813   20.1278   10.8918 H     1788  UNL1788     0.1146
   7152 H          22.3432   20.7410    9.4031 H     1788  UNL1788     0.1146
   7153 N          21.8193   20.0727   12.2604 N.3   1789  UNL1789    -0.3437
   7154 H          21.9470   19.6895   13.1959 H     1789  UNL1789     0.1146
   7155 H          21.7242   21.0802   12.3801 H     1789  UNL1789     0.1146
   7156 H          22.7039   19.9299   11.7751 H     1789  UNL1789     0.1146
   7157 N          21.8557   20.0314   14.8467 N.3   1790  UNL1790    -0.3437
   7158 H          21.4140   20.5554   14.0926 H     1790  UNL1790     0.1146
   7159 H          22.5813   19.4660   14.4084 H     1790  UNL1790     0.1146
   7160 H          22.3432   20.7195   15.4188 H     1790  UNL1790     0.1146
   7161 N          21.9859   20.1656   17.2679 N.3   1791  UNL1791    -0.3437
   7162 H          22.9481   20.4562   17.1004 H     1791  UNL1791     0.1146
   7163 H          21.3989   20.8552   16.8007 H     1791  UNL1791     0.1146
   7164 H          21.8615   19.2955   16.7523 H     1791  UNL1791     0.1146
   7165 N          21.9859   20.1656   19.5566 N.3   1792  UNL1792    -0.3437
   7166 H          22.9481   20.4562   19.3891 H     1792  UNL1792     0.1146
   7167 H          21.3989   20.8552   19.0894 H     1792  UNL1792     0.1146
   7168 H          21.8615   19.2955   19.0410 H     1792  UNL1792     0.1146
   7169 N          21.8193   20.0727   21.4152 N.3   1793  UNL1793    -0.3437
   7170 H          21.9470   19.6895   22.3508 H     1793  UNL1793     0.1146
   7171 H          21.7242   21.0802   21.5350 H     1793  UNL1793     0.1146
   7172 H          22.7039   19.9299   20.9300 H     1793  UNL1793     0.1146
   7173 N          22.0623   20.3810   23.6187 N.3   1794  UNL1794    -0.3437
   7174 H          21.4409   20.7038   24.3589 H     1794  UNL1794     0.1146
   7175 H          22.9685   20.2286   24.0592 H     1794  UNL1794     0.1146
   7176 H          21.7227   19.4589   23.3490 H     1794  UNL1794     0.1146
   7177 N          21.8193   20.0727   25.9927 N.3   1795  UNL1795    -0.3437
   7178 H          21.9470   19.6895   26.9282 H     1795  UNL1795     0.1146
   7179 H          21.7242   21.0802   26.1124 H     1795  UNL1795     0.1146
   7180 H          22.7039   19.9299   25.5074 H     1795  UNL1795     0.1146
   7181 N          21.7719   20.1826   29.3203 N.3   1796  UNL1796    -0.3437
   7182 H          21.9096   19.5890   30.1370 H     1796  UNL1796     0.1146
   7183 H          22.0511   21.1205   29.6044 H     1796  UNL1796     0.1146
   7184 H          22.4617   19.8802   28.6338 H     1796  UNL1796     0.1146
   7185 N          21.8557   22.8315    1.3590 N.3   1797  UNL1797    -0.3437
   7186 H          21.4140   21.9597    1.0705 H     1797  UNL1797     0.1146
   7187 H          22.5813   22.5716    2.0256 H     1797  UNL1797     0.1146
   7188 H          22.3432   23.1848    0.5369 H     1797  UNL1797     0.1146
   7189 N          21.8557   22.8315    3.6477 N.3   1798  UNL1798    -0.3437
   7190 H          21.4140   21.9597    3.3592 H     1798  UNL1798     0.1146
   7191 H          22.5813   22.5716    4.3143 H     1798  UNL1798     0.1146
   7192 H          22.3432   23.1848    2.8256 H     1798  UNL1798     0.1146
   7193 N          21.8003   22.7955    5.8492 N.3   1799  UNL1799    -0.3437
   7194 H          22.2164   22.5769    6.7534 H     1799  UNL1799     0.1146
   7195 H          22.5243   23.2742    5.3152 H     1799  UNL1799     0.1146
   7196 H          21.6534   21.9009    5.3840 H     1799  UNL1799     0.1146
   7197 N          22.3421   22.6094    8.0927 N.3   1800  UNL1800    -0.3437
   7198 H          21.9086   22.9000    7.2175 H     1800  UNL1800     0.1146
   7199 H          22.0606   23.2990    8.7882 H     1800  UNL1800     0.1146
   7200 H          21.8830   21.7393    8.3583 H     1800  UNL1800     0.1146
   7201 N          21.8003   22.7955   10.4267 N.3   1801  UNL1801    -0.3437
   7202 H          22.2164   22.5769   11.3308 H     1801  UNL1801     0.1146
   7203 H          22.5243   23.2742    9.8926 H     1801  UNL1801     0.1146
   7204 H          21.6534   21.9009    9.9614 H     1801  UNL1801     0.1146
   7205 N          21.8557   22.4752   14.8467 N.3   1802  UNL1802    -0.3437
   7206 H          21.4140   22.9992   14.0926 H     1802  UNL1802     0.1146
   7207 H          22.5813   21.9098   14.4084 H     1802  UNL1802     0.1146
   7208 H          22.3432   23.1633   15.4188 H     1802  UNL1802     0.1146
   7209 N          21.8557   22.8315   17.0913 N.3   1803  UNL1803    -0.3437
   7210 H          21.4140   21.9597   16.8028 H     1803  UNL1803     0.1146
   7211 H          22.5813   22.5716   17.7579 H     1803  UNL1803     0.1146
   7212 H          22.3432   23.1848   16.2692 H     1803  UNL1803     0.1146
   7213 N          21.8557   22.8315   19.3800 N.3   1804  UNL1804    -0.3437
   7214 H          21.4140   21.9597   19.0915 H     1804  UNL1804     0.1146
   7215 H          22.5813   22.5716   20.0466 H     1804  UNL1804     0.1146
   7216 H          22.3432   23.1848   18.5579 H     1804  UNL1804     0.1146
   7217 N          21.8557   22.6094   21.3354 N.3   1805  UNL1805    -0.3437
   7218 H          21.4140   22.9000   22.2065 H     1805  UNL1805     0.1146
   7219 H          22.5813   23.2990   21.1447 H     1805  UNL1805     0.1146
   7220 H          22.3432   21.7393   21.5443 H     1805  UNL1805     0.1146
   7221 N          22.0623   22.8248   23.6187 N.3   1806  UNL1806    -0.3437
   7222 H          21.4409   23.1476   24.3589 H     1806  UNL1806     0.1146
   7223 H          22.9685   22.6724   24.0592 H     1806  UNL1806     0.1146
   7224 H          21.7227   21.9027   23.3490 H     1806  UNL1806     0.1146
   7225 N          22.0623   22.8248   25.9074 N.3   1807  UNL1807    -0.3437
   7226 H          21.4409   23.1476   26.6476 H     1807  UNL1807     0.1146
   7227 H          22.9685   22.6724   26.3480 H     1807  UNL1807     0.1146
   7228 H          21.7227   21.9027   25.6377 H     1807  UNL1807     0.1146
   7229 N          21.7719   22.6264   29.3203 N.3   1808  UNL1808    -0.3437
   7230 H          21.9096   22.0328   30.1370 H     1808  UNL1808     0.1146
   7231 H          22.0511   23.5643   29.6044 H     1808  UNL1808     0.1146
   7232 H          22.4617   22.3240   28.6338 H     1808  UNL1808     0.1146
   7233 N          21.7719   25.0702    0.8557 N.3   1809  UNL1809    -0.3437
   7234 H          21.9097   24.4766    1.6724 H     1809  UNL1809     0.1146
   7235 H          22.0511   26.0081    1.1398 H     1809  UNL1809     0.1146
   7236 H          22.4617   24.7678    0.1693 H     1809  UNL1809     0.1146
   7237 N          22.0623   25.2686    3.0203 N.3   1810  UNL1810    -0.3437
   7238 H          21.4409   25.5914    3.7605 H     1810  UNL1810     0.1146
   7239 H          22.9685   25.1162    3.4608 H     1810  UNL1810     0.1146
   7240 H          21.7227   24.3465    2.7506 H     1810  UNL1810     0.1146
   7241 N          21.8557   25.0532    5.3144 N.3   1811  UNL1811    -0.3437
   7242 H          21.4140   25.3438    6.1855 H     1811  UNL1811     0.1146
   7243 H          22.5813   25.7428    5.1237 H     1811  UNL1811     0.1146
   7244 H          22.3432   24.1831    5.5233 H     1811  UNL1811     0.1146
   7245 N          21.8557   24.9191    7.9806 N.3   1812  UNL1812    -0.3437
   7246 H          21.4140   25.4430    7.2264 H     1812  UNL1812     0.1146
   7247 H          22.5813   24.3536    7.5422 H     1812  UNL1812     0.1146
   7248 H          22.3432   25.6071    8.5526 H     1812  UNL1812     0.1146
   7249 N          21.9859   25.0532   10.4017 N.3   1813  UNL1813    -0.3437
   7250 H          22.9481   25.3438   10.2343 H     1813  UNL1813     0.1146
   7251 H          21.3989   25.7428    9.9345 H     1813  UNL1813     0.1146
   7252 H          21.8615   24.1831    9.8861 H     1813  UNL1813     0.1146
   7253 N          21.8557   25.0532   12.1806 N.3   1814  UNL1814    -0.3437
   7254 H          21.4140   25.3438   13.0517 H     1814  UNL1814     0.1146
   7255 H          22.5813   25.7428   11.9899 H     1814  UNL1814     0.1146
   7256 H          22.3432   24.1831   12.3895 H     1814  UNL1814     0.1146
   7257 N          22.0623   25.2686   14.4638 N.3   1815  UNL1815    -0.3437
   7258 H          21.4409   25.5914   15.2040 H     1815  UNL1815     0.1146
   7259 H          22.9685   25.1162   14.9044 H     1815  UNL1815     0.1146
   7260 H          21.7227   24.3465   14.1941 H     1815  UNL1815     0.1146
   7261 N          21.8193   24.9603   16.8378 N.3   1816  UNL1816    -0.3437
   7262 H          21.9470   24.5771   17.7733 H     1816  UNL1816     0.1146
   7263 H          21.7242   25.9678   16.9575 H     1816  UNL1816     0.1146
   7264 H          22.7039   24.8175   16.3526 H     1816  UNL1816     0.1146
   7265 N          21.8193   24.9603   19.1265 N.3   1817  UNL1817    -0.3437
   7266 H          21.9470   24.5771   20.0621 H     1817  UNL1817     0.1146
   7267 H          21.7242   25.9678   19.2462 H     1817  UNL1817     0.1146
   7268 H          22.7039   24.8175   18.6413 H     1817  UNL1817     0.1146
   7269 N          21.8193   24.9603   21.4152 N.3   1818  UNL1818    -0.3437
   7270 H          21.9470   24.5771   22.3508 H     1818  UNL1818     0.1146
   7271 H          21.7242   25.9678   21.5350 H     1818  UNL1818     0.1146
   7272 H          22.7039   24.8175   20.9300 H     1818  UNL1818     0.1146
   7273 N          21.8557   24.9191   24.0016 N.3   1819  UNL1819    -0.3437
   7274 H          21.4140   25.4430   23.2474 H     1819  UNL1819     0.1146
   7275 H          22.5813   24.3536   23.5632 H     1819  UNL1819     0.1146
   7276 H          22.3432   25.6071   24.5736 H     1819  UNL1819     0.1146
   7277 N          21.8557   25.2753   26.2462 N.3   1820  UNL1820    -0.3437
   7278 H          21.4140   24.4035   25.9577 H     1820  UNL1820     0.1146
   7279 H          22.5813   25.0154   26.9128 H     1820  UNL1820     0.1146
   7280 H          22.3432   25.6286   25.4241 H     1820  UNL1820     0.1146
   7281 N          21.7719   25.0702   29.3203 N.3   1821  UNL1821    -0.3437
   7282 H          21.9096   24.4766   30.1370 H     1821  UNL1821     0.1146
   7283 H          22.0511   26.0081   29.6044 H     1821  UNL1821     0.1146
   7284 H          22.4617   24.7678   28.6338 H     1821  UNL1821     0.1146
   7285 N          21.8557   27.4970    0.7370 N.3   1822  UNL1822    -0.3437
   7286 H          21.4140   27.7876    1.6081 H     1822  UNL1822     0.1146
   7287 H          22.5813   28.1866    0.5463 H     1822  UNL1822     0.1146
   7288 H          22.3432   26.6269    0.9459 H     1822  UNL1822     0.1146
   7289 N          22.0623   27.7124    3.0203 N.3   1823  UNL1823    -0.3437
   7290 H          21.4409   28.0352    3.7605 H     1823  UNL1823     0.1146
   7291 H          22.9685   27.5600    3.4608 H     1823  UNL1823     0.1146
   7292 H          21.7227   26.7903    2.7506 H     1823  UNL1823     0.1146
   7293 N          22.0623   27.7124    5.3090 N.3   1824  UNL1824    -0.3437
   7294 H          21.4409   28.0352    6.0492 H     1824  UNL1824     0.1146
   7295 H          22.9685   27.5600    5.7495 H     1824  UNL1824     0.1146
   7296 H          21.7227   26.7903    5.0393 H     1824  UNL1824     0.1146
   7297 N          21.8557   27.4970    7.6031 N.3   1825  UNL1825    -0.3437
   7298 H          21.4140   27.7876    8.4742 H     1825  UNL1825     0.1146
   7299 H          22.5813   28.1866    7.4124 H     1825  UNL1825     0.1146
   7300 H          22.3432   26.6269    7.8120 H     1825  UNL1825     0.1146
   7301 N          21.8557   27.3629   10.2693 N.3   1826  UNL1826    -0.3437
   7302 H          21.4140   27.8868    9.5151 H     1826  UNL1826     0.1146
   7303 H          22.5813   26.7974    9.8309 H     1826  UNL1826     0.1146
   7304 H          22.3432   28.0509   10.8413 H     1826  UNL1826     0.1146
   7305 N          21.9859   27.4970   12.6904 N.3   1827  UNL1827    -0.3437
   7306 H          22.9481   27.7876   12.5230 H     1827  UNL1827     0.1146
   7307 H          21.3989   28.1866   12.2232 H     1827  UNL1827     0.1146
   7308 H          21.8615   26.6269   12.1749 H     1827  UNL1827     0.1146
   7309 N          21.8557   27.4970   14.4693 N.3   1828  UNL1828    -0.3437
   7310 H          21.4140   27.7876   15.3404 H     1828  UNL1828     0.1146
   7311 H          22.5813   28.1866   14.2786 H     1828  UNL1828     0.1146
   7312 H          22.3432   26.6269   14.6782 H     1828  UNL1828     0.1146
   7313 N          21.8557   27.4970   16.7580 N.3   1829  UNL1829    -0.3437
   7314 H          21.4140   27.7876   17.6291 H     1829  UNL1829     0.1146
   7315 H          22.5813   28.1866   16.5673 H     1829  UNL1829     0.1146
   7316 H          22.3432   26.6269   16.9669 H     1829  UNL1829     0.1146
   7317 N          21.8193   27.4041   19.1265 N.3   1830  UNL1830    -0.3437
   7318 H          21.9470   27.0209   20.0621 H     1830  UNL1830     0.1146
   7319 H          21.7242   28.4116   19.2462 H     1830  UNL1830     0.1146
   7320 H          22.7039   27.2613   18.6413 H     1830  UNL1830     0.1146
   7321 N          21.9859   27.4970   21.8453 N.3   1831  UNL1831    -0.3437
   7322 H          22.9481   27.7876   21.6778 H     1831  UNL1831     0.1146
   7323 H          21.3989   28.1866   21.3781 H     1831  UNL1831     0.1146
   7324 H          21.8615   26.6269   21.3297 H     1831  UNL1831     0.1146
   7325 N          21.8193   27.4041   23.7040 N.3   1832  UNL1832    -0.3437
   7326 H          21.9470   27.0209   24.6395 H     1832  UNL1832     0.1146
   7327 H          21.7242   28.4116   23.8237 H     1832  UNL1832     0.1146
   7328 H          22.7039   27.2613   23.2187 H     1832  UNL1832     0.1146
   7329 N          21.8557   27.7191   26.2462 N.3   1833  UNL1833    -0.3437
   7330 H          21.4140   26.8473   25.9577 H     1833  UNL1833     0.1146
   7331 H          22.5813   27.4592   26.9128 H     1833  UNL1833     0.1146
   7332 H          22.3432   28.0724   25.4241 H     1833  UNL1833     0.1146
   7333 N          21.7719   27.5140   29.3203 N.3   1834  UNL1834    -0.3437
   7334 H          21.9096   26.9204   30.1370 H     1834  UNL1834     0.1146
   7335 H          22.0511   28.4519   29.6044 H     1834  UNL1834     0.1146
   7336 H          22.4617   27.2116   28.6338 H     1834  UNL1834     0.1146
   7337 N          21.8557   30.9408    0.7370 N.3   1835  UNL1835    -0.3437
   7338 H          21.4140   31.2314    1.6081 H     1835  UNL1835     0.1146
   7339 H          22.5813   31.6304    0.5463 H     1835  UNL1835     0.1146
   7340 H          22.3432   30.0707    0.9459 H     1835  UNL1835     0.1146
   7341 N          21.8557   30.9408    3.0257 N.3   1836  UNL1836    -0.3437
   7342 H          21.4140   31.2314    3.8968 H     1836  UNL1836     0.1146
   7343 H          22.5813   31.6304    2.8350 H     1836  UNL1836     0.1146
   7344 H          22.3432   30.0707    3.2346 H     1836  UNL1836     0.1146
   7345 N          21.8557   30.9408    5.3144 N.3   1837  UNL1837    -0.3437
   7346 H          21.4140   31.2314    6.1855 H     1837  UNL1837     0.1146
   7347 H          22.5813   31.6304    5.1237 H     1837  UNL1837     0.1146
   7348 H          22.3432   30.0707    5.5233 H     1837  UNL1837     0.1146
   7349 N          22.0456   30.7107    7.6806 N.3   1838  UNL1838    -0.3437
   7350 H          21.1111   31.0854    7.8375 H     1838  UNL1838     0.1146
   7351 H          22.5594   31.4367    7.1833 H     1838  UNL1838     0.1146
   7352 H          22.4782   30.6405    8.6005 H     1838  UNL1838     0.1146
   7353 N          21.8557   30.9408    9.8918 N.3   1839  UNL1839    -0.3437
   7354 H          21.4140   31.2314   10.7629 H     1839  UNL1839     0.1146
   7355 H          22.5813   31.6304    9.7011 H     1839  UNL1839     0.1146
   7356 H          22.3432   30.0707   10.1007 H     1839  UNL1839     0.1146
   7357 N          21.8557   30.9408   12.1806 N.3   1840  UNL1840    -0.3437
   7358 H          21.4140   31.2314   13.0517 H     1840  UNL1840     0.1146
   7359 H          22.5813   31.6304   11.9899 H     1840  UNL1840     0.1146
   7360 H          22.3432   30.0707   12.3895 H     1840  UNL1840     0.1146
   7361 N          21.9859   29.9408   14.9792 N.3   1841  UNL1841    -0.3437
   7362 H          22.9481   30.2314   14.8117 H     1841  UNL1841     0.1146
   7363 H          21.3989   30.6304   14.5120 H     1841  UNL1841     0.1146
   7364 H          21.8615   29.0707   14.4636 H     1841  UNL1841     0.1146
   7365 N          21.8557   30.9408   16.7580 N.3   1842  UNL1842    -0.3437
   7366 H          21.4140   31.2314   17.6291 H     1842  UNL1842     0.1146
   7367 H          22.5813   31.6304   16.5673 H     1842  UNL1842     0.1146
   7368 H          22.3432   30.0707   16.9669 H     1842  UNL1842     0.1146
   7369 N          21.8557   30.9408   19.0467 N.3   1843  UNL1843    -0.3437
   7370 H          21.4140   31.2314   19.9178 H     1843  UNL1843     0.1146
   7371 H          22.5813   31.6304   18.8560 H     1843  UNL1843     0.1146
   7372 H          22.3432   30.0707   19.2556 H     1843  UNL1843     0.1146
   7373 N          21.8557   30.9408   21.3354 N.3   1844  UNL1844    -0.3437
   7374 H          21.4140   31.2314   22.2065 H     1844  UNL1844     0.1146
   7375 H          22.5813   31.6304   21.1447 H     1844  UNL1844     0.1146
   7376 H          22.3432   30.0707   21.5443 H     1844  UNL1844     0.1146
   7377 N          21.8557   29.9408   23.6241 N.3   1845  UNL1845    -0.3437
   7378 H          21.4140   30.2314   24.4952 H     1845  UNL1845     0.1146
   7379 H          22.5813   30.6304   23.4334 H     1845  UNL1845     0.1146
   7380 H          22.3432   29.0707   23.8330 H     1845  UNL1845     0.1146
   7381 N          21.8557   30.9408   25.9128 N.3   1846  UNL1846    -0.3437
   7382 H          21.4140   31.2314   26.7840 H     1846  UNL1846     0.1146
   7383 H          22.5813   31.6304   25.7221 H     1846  UNL1846     0.1146
   7384 H          22.3432   30.0707   26.1217 H     1846  UNL1846     0.1146
   7385 N          21.8557   29.9408   28.2016 N.3   1847  UNL1847    -0.3437
   7386 H          21.4140   30.2314   29.0727 H     1847  UNL1847     0.1146
   7387 H          22.5813   30.6304   28.0109 H     1847  UNL1847     0.1146
   7388 H          22.3432   29.0707   28.4105 H     1847  UNL1847     0.1146
   7389 N          24.0499    0.4810    1.1144 N.3   1848  UNL1848    -0.3437
   7390 H          23.6082    1.0050    0.3603 H     1848  UNL1848     0.1146
   7391 H          24.7755   -0.0845    0.6761 H     1848  UNL1848     0.1146
   7392 H          24.5374    1.1691    1.6865 H     1848  UNL1848     0.1146
   7393 N          24.0499    0.8372    3.3590 N.3   1849  UNL1849    -0.3437
   7394 H          23.6082   -0.0346    3.0705 H     1849  UNL1849     0.1146
   7395 H          24.7755    0.5773    4.0256 H     1849  UNL1849     0.1146
   7396 H          24.5374    1.1906    2.5369 H     1849  UNL1849     0.1146
   7397 N          24.0499    0.8372    5.6477 N.3   1850  UNL1850    -0.3437
   7398 H          23.6082   -0.0346    5.3592 H     1850  UNL1850     0.1146
   7399 H          24.7755    0.5773    6.3143 H     1850  UNL1850     0.1146
   7400 H          24.5374    1.1906    4.8256 H     1850  UNL1850     0.1146
   7401 N          24.0499    0.8372    7.9365 N.3   1851  UNL1851    -0.3437
   7402 H          23.6082   -0.0346    7.6479 H     1851  UNL1851     0.1146
   7403 H          24.7755    0.5773    8.6031 H     1851  UNL1851     0.1146
   7404 H          24.5374    1.1906    7.1144 H     1851  UNL1851     0.1146
   7405 N          24.0499    0.8372   10.2252 N.3   1852  UNL1852    -0.3437
   7406 H          23.6082   -0.0346    9.9367 H     1852  UNL1852     0.1146
   7407 H          24.7755    0.5773   10.8918 H     1852  UNL1852     0.1146
   7408 H          24.5374    1.1906    9.4031 H     1852  UNL1852     0.1146
   7409 N          24.0499    0.8372   12.5139 N.3   1853  UNL1853    -0.3437
   7410 H          23.6082   -0.0346   12.2254 H     1853  UNL1853     0.1146
   7411 H          24.7755    0.5773   13.1805 H     1853  UNL1853     0.1146
   7412 H          24.5374    1.1906   11.6918 H     1853  UNL1853     0.1146
   7413 N          24.0499    0.8372   14.8026 N.3   1854  UNL1854    -0.3437
   7414 H          23.6082   -0.0346   14.5141 H     1854  UNL1854     0.1146
   7415 H          24.7755    0.5773   15.4692 H     1854  UNL1854     0.1146
   7416 H          24.5374    1.1906   13.9805 H     1854  UNL1854     0.1146
   7417 N          24.0499    0.8372   17.0913 N.3   1855  UNL1855    -0.3437
   7418 H          23.6082   -0.0346   16.8028 H     1855  UNL1855     0.1146
   7419 H          24.7755    0.5773   17.7579 H     1855  UNL1855     0.1146
   7420 H          24.5374    1.1906   16.2692 H     1855  UNL1855     0.1146
   7421 N          24.0499    0.8372   19.3800 N.3   1856  UNL1856    -0.3437
   7422 H          23.6082   -0.0346   19.0915 H     1856  UNL1856     0.1146
   7423 H          24.7755    0.5773   20.0466 H     1856  UNL1856     0.1146
   7424 H          24.5374    1.1906   18.5579 H     1856  UNL1856     0.1146
   7425 N          24.0499    0.8372   21.6687 N.3   1857  UNL1857    -0.3437
   7426 H          23.6082   -0.0346   21.3802 H     1857  UNL1857     0.1146
   7427 H          24.7755    0.5773   22.3353 H     1857  UNL1857     0.1146
   7428 H          24.5374    1.1906   20.8466 H     1857  UNL1857     0.1146
   7429 N          24.0499    0.6151   23.6241 N.3   1858  UNL1858    -0.3437
   7430 H          23.6082    0.9057   24.4952 H     1858  UNL1858     0.1146
   7431 H          24.7755    1.3047   23.4334 H     1858  UNL1858     0.1146
   7432 H          24.5374   -0.2550   23.8330 H     1858  UNL1858     0.1146
   7433 N          24.0499    0.4810   26.2903 N.3   1859  UNL1859    -0.3437
   7434 H          23.6082    1.0050   25.5361 H     1859  UNL1859     0.1146
   7435 H          24.7755   -0.0845   25.8519 H     1859  UNL1859     0.1146
   7436 H          24.5374    1.1691   26.8623 H     1859  UNL1859     0.1146
   7437 N          23.9661    0.6321   29.3203 N.3   1860  UNL1860    -0.3437
   7438 H          24.1038    0.0386   30.1370 H     1860  UNL1860     0.1146
   7439 H          24.2452    1.5701   29.6044 H     1860  UNL1860     0.1146
   7440 H          24.6558    0.3298   28.6338 H     1860  UNL1860     0.1146
   7441 N          24.0134    2.9661    0.8168 N.3   1861  UNL1861    -0.3437
   7442 H          24.1412    2.5829    1.7523 H     1861  UNL1861     0.1146
   7443 H          23.9183    3.9736    0.9365 H     1861  UNL1861     0.1146
   7444 H          24.8980    2.8232    0.3316 H     1861  UNL1861     0.1146
   7445 N          24.2565    3.2743    3.0203 N.3   1862  UNL1862    -0.3437
   7446 H          23.6350    3.5972    3.7605 H     1862  UNL1862     0.1146
   7447 H          25.1626    3.1220    3.4608 H     1862  UNL1862     0.1146
   7448 H          23.9168    2.3523    2.7506 H     1862  UNL1862     0.1146
   7449 N          24.0134    2.9661    5.3942 N.3   1863  UNL1863    -0.3437
   7450 H          24.1412    2.5829    6.3298 H     1863  UNL1863     0.1146
   7451 H          23.9183    3.9736    5.5140 H     1863  UNL1863     0.1146
   7452 H          24.8980    2.8232    4.9090 H     1863  UNL1863     0.1146
   7453 N          24.0499    3.2810    7.9365 N.3   1864  UNL1864    -0.3437
   7454 H          23.6082    2.4092    7.6479 H     1864  UNL1864     0.1146
   7455 H          24.7755    3.0211    8.6031 H     1864  UNL1864     0.1146
   7456 H          24.5374    3.6344    7.1144 H     1864  UNL1864     0.1146
   7457 N          24.0499    3.2810   10.2252 N.3   1865  UNL1865    -0.3437
   7458 H          23.6082    2.4092    9.9367 H     1865  UNL1865     0.1146
   7459 H          24.7755    3.0211   10.8918 H     1865  UNL1865     0.1146
   7460 H          24.5374    3.6344    9.4031 H     1865  UNL1865     0.1146
   7461 N          24.0499    3.2810   12.5139 N.3   1866  UNL1866    -0.3437
   7462 H          23.6082    2.4092   12.2254 H     1866  UNL1866     0.1146
   7463 H          24.7755    3.0211   13.1805 H     1866  UNL1866     0.1146
   7464 H          24.5374    3.6344   11.6918 H     1866  UNL1866     0.1146
   7465 N          24.0499    3.2810   14.8026 N.3   1867  UNL1867    -0.3437
   7466 H          23.6082    2.4092   14.5141 H     1867  UNL1867     0.1146
   7467 H          24.7755    3.0211   15.4692 H     1867  UNL1867     0.1146
   7468 H          24.5374    3.6344   13.9805 H     1867  UNL1867     0.1146
   7469 N          24.0499    3.2810   17.0913 N.3   1868  UNL1868    -0.3437
   7470 H          23.6082    2.4092   16.8028 H     1868  UNL1868     0.1146
   7471 H          24.7755    3.0211   17.7579 H     1868  UNL1868     0.1146
   7472 H          24.5374    3.6344   16.2692 H     1868  UNL1868     0.1146
   7473 N          24.2754    3.1598   18.9846 N.3   1869  UNL1869    -0.3437
   7474 H          23.3656    2.7459   19.1826 H     1869  UNL1869     0.1146
   7475 H          24.3625    3.9593   19.6104 H     1869  UNL1869     0.1146
   7476 H          24.9673    2.4808   19.2986 H     1869  UNL1869     0.1146
   7477 N          24.0499    3.0589   21.3354 N.3   1870  UNL1870    -0.3437
   7478 H          23.6082    3.3495   22.2065 H     1870  UNL1870     0.1146
   7479 H          24.7755    3.7485   21.1447 H     1870  UNL1870     0.1146
   7480 H          24.5374    2.1888   21.5443 H     1870  UNL1870     0.1146
   7481 N          24.0499    2.9248   24.0016 N.3   1871  UNL1871    -0.3437
   7482 H          23.6082    3.4488   23.2474 H     1871  UNL1871     0.1146
   7483 H          24.7755    2.3593   23.5632 H     1871  UNL1871     0.1146
   7484 H          24.5374    3.6129   24.5736 H     1871  UNL1871     0.1146
   7485 N          24.0499    3.2810   26.2462 N.3   1872  UNL1872    -0.3437
   7486 H          23.6082    2.4092   25.9577 H     1872  UNL1872     0.1146
   7487 H          24.7755    3.0211   26.9128 H     1872  UNL1872     0.1146
   7488 H          24.5374    3.6344   25.4241 H     1872  UNL1872     0.1146
   7489 N          23.9661    3.0759   29.3203 N.3   1873  UNL1873    -0.3437
   7490 H          24.1038    2.4824   30.1370 H     1873  UNL1873     0.1146
   7491 H          24.2452    4.0139   29.6044 H     1873  UNL1873     0.1146
   7492 H          24.6558    2.7736   28.6338 H     1873  UNL1873     0.1146
   7493 N          24.2565    5.7181    0.7315 N.3   1874  UNL1874    -0.3437
   7494 H          23.6350    6.0410    1.4717 H     1874  UNL1874     0.1146
   7495 H          25.1626    5.5658    1.1721 H     1874  UNL1874     0.1146
   7496 H          23.9168    4.7961    0.4619 H     1874  UNL1874     0.1146
   7497 N          24.0499    5.5027    3.0257 N.3   1875  UNL1875    -0.3437
   7498 H          23.6082    5.7933    3.8968 H     1875  UNL1875     0.1146
   7499 H          24.7755    6.1923    2.8350 H     1875  UNL1875     0.1146
   7500 H          24.5374    4.6326    3.2346 H     1875  UNL1875     0.1146
   7501 N          24.0499    5.5027    5.3144 N.3   1876  UNL1876    -0.3437
   7502 H          23.6082    5.7933    6.1855 H     1876  UNL1876     0.1146
   7503 H          24.7755    6.1923    5.1237 H     1876  UNL1876     0.1146
   7504 H          24.5374    4.6326    5.5233 H     1876  UNL1876     0.1146
   7505 N          24.0499    5.5027    7.6031 N.3   1877  UNL1877    -0.3437
   7506 H          23.6082    5.7933    8.4742 H     1877  UNL1877     0.1146
   7507 H          24.7755    6.1923    7.4124 H     1877  UNL1877     0.1146
   7508 H          24.5374    4.6326    7.8120 H     1877  UNL1877     0.1146
   7509 N          24.0499    5.5027    9.8918 N.3   1878  UNL1878    -0.3437
   7510 H          23.6082    5.7933   10.7629 H     1878  UNL1878     0.1146
   7511 H          24.7755    6.1923    9.7011 H     1878  UNL1878     0.1146
   7512 H          24.5374    4.6326   10.1007 H     1878  UNL1878     0.1146
   7513 N          24.0499    5.5027   12.1806 N.3   1879  UNL1879    -0.3437
   7514 H          23.6082    5.7933   13.0517 H     1879  UNL1879     0.1146
   7515 H          24.7755    6.1923   11.9899 H     1879  UNL1879     0.1146
   7516 H          24.5374    4.6326   12.3895 H     1879  UNL1879     0.1146
   7517 N          24.0499    5.5027   14.4693 N.3   1880  UNL1880    -0.3437
   7518 H          23.6082    5.7933   15.3404 H     1880  UNL1880     0.1146
   7519 H          24.7755    6.1923   14.2786 H     1880  UNL1880     0.1146
   7520 H          24.5374    4.6326   14.6782 H     1880  UNL1880     0.1146
   7521 N          24.0499    5.5027   16.7580 N.3   1881  UNL1881    -0.3437
   7522 H          23.6082    5.7933   17.6291 H     1881  UNL1881     0.1146
   7523 H          24.7755    6.1923   16.5673 H     1881  UNL1881     0.1146
   7524 H          24.5374    4.6326   16.9669 H     1881  UNL1881     0.1146
   7525 N          24.2565    5.7181   19.0413 N.3   1882  UNL1882    -0.3437
   7526 H          23.6350    6.0410   19.7815 H     1882  UNL1882     0.1146
   7527 H          25.1626    5.5658   19.4818 H     1882  UNL1882     0.1146
   7528 H          23.9168    4.7961   18.7716 H     1882  UNL1882     0.1146
   7529 N          24.0499    5.5027   21.3354 N.3   1883  UNL1883    -0.3437
   7530 H          23.6082    5.7933   22.2065 H     1883  UNL1883     0.1146
   7531 H          24.7755    6.1923   21.1447 H     1883  UNL1883     0.1146
   7532 H          24.5374    4.6326   21.5443 H     1883  UNL1883     0.1146
   7533 N          24.2565    5.7181   23.6187 N.3   1884  UNL1884    -0.3437
   7534 H          23.6350    6.0410   24.3589 H     1884  UNL1884     0.1146
   7535 H          25.1626    5.5658   24.0592 H     1884  UNL1884     0.1146
   7536 H          23.9168    4.7961   23.3490 H     1884  UNL1884     0.1146
   7537 N          24.0134    5.4099   25.9927 N.3   1885  UNL1885    -0.3437
   7538 H          24.1412    5.0267   26.9282 H     1885  UNL1885     0.1146
   7539 H          23.9183    6.4174   26.1124 H     1885  UNL1885     0.1146
   7540 H          24.8980    5.2670   25.5074 H     1885  UNL1885     0.1146
   7541 N          23.9661    5.5197   29.3203 N.3   1886  UNL1886    -0.3437
   7542 H          24.1038    4.9262   30.1370 H     1886  UNL1886     0.1146
   7543 H          24.2452    6.4577   29.6044 H     1886  UNL1886     0.1146
   7544 H          24.6558    5.2174   28.6338 H     1886  UNL1886     0.1146
   7545 N          24.0499    8.1686    1.0703 N.3   1887  UNL1887    -0.3437
   7546 H          23.6082    7.2968    0.7818 H     1887  UNL1887     0.1146
   7547 H          24.7755    7.9087    1.7369 H     1887  UNL1887     0.1146
   7548 H          24.5374    8.5220    0.2482 H     1887  UNL1887     0.1146
   7549 N          24.0134    7.8537    3.1055 N.3   1888  UNL1888    -0.3437
   7550 H          24.1412    7.4705    4.0410 H     1888  UNL1888     0.1146
   7551 H          23.9183    8.8612    3.2252 H     1888  UNL1888     0.1146
   7552 H          24.8980    7.7108    2.6203 H     1888  UNL1888     0.1146
   7553 N          24.2565    8.1620    5.3090 N.3   1889  UNL1889    -0.3437
   7554 H          23.6350    8.4848    6.0492 H     1889  UNL1889     0.1146
   7555 H          25.1626    8.0096    5.7495 H     1889  UNL1889     0.1146
   7556 H          23.9168    7.2399    5.0393 H     1889  UNL1889     0.1146
   7557 N          24.0134    7.8537    7.6830 N.3   1890  UNL1890    -0.3437
   7558 H          24.1412    7.4705    8.6185 H     1890  UNL1890     0.1146
   7559 H          23.9183    8.8612    7.8027 H     1890  UNL1890     0.1146
   7560 H          24.8980    7.7108    7.1977 H     1890  UNL1890     0.1146
   7561 N          24.0134    7.8537    9.9717 N.3   1891  UNL1891    -0.3437
   7562 H          24.1412    7.4705   10.9072 H     1891  UNL1891     0.1146
   7563 H          23.9183    8.8612   10.0914 H     1891  UNL1891     0.1146
   7564 H          24.8980    7.7108    9.4864 H     1891  UNL1891     0.1146
   7565 N          24.0499    7.8124   12.5580 N.3   1892  UNL1892    -0.3437
   7566 H          23.6082    8.3364   11.8039 H     1892  UNL1892     0.1146
   7567 H          24.7755    7.2469   12.1196 H     1892  UNL1892     0.1146
   7568 H          24.5374    8.5005   13.1301 H     1892  UNL1892     0.1146
   7569 N          24.0499    8.1686   14.8026 N.3   1893  UNL1893    -0.3437
   7570 H          23.6082    7.2968   14.5141 H     1893  UNL1893     0.1146
   7571 H          24.7755    7.9087   15.4692 H     1893  UNL1893     0.1146
   7572 H          24.5374    8.5220   13.9805 H     1893  UNL1893     0.1146
   7573 N          24.0499    8.1686   17.0913 N.3   1894  UNL1894    -0.3437
   7574 H          23.6082    7.2968   16.8028 H     1894  UNL1894     0.1146
   7575 H          24.7755    7.9087   17.7579 H     1894  UNL1894     0.1146
   7576 H          24.5374    8.5220   16.2692 H     1894  UNL1894     0.1146
   7577 N          24.0499    8.1686   19.3800 N.3   1895  UNL1895    -0.3437
   7578 H          23.6082    7.2968   19.0915 H     1895  UNL1895     0.1146
   7579 H          24.7755    7.9087   20.0466 H     1895  UNL1895     0.1146
   7580 H          24.5374    8.5220   18.5579 H     1895  UNL1895     0.1146
   7581 N          24.0499    7.9465   21.3354 N.3   1896  UNL1896    -0.3437
   7582 H          23.6082    8.2371   22.2065 H     1896  UNL1896     0.1146
   7583 H          24.7755    8.6361   21.1447 H     1896  UNL1896     0.1146
   7584 H          24.5374    7.0764   21.5443 H     1896  UNL1896     0.1146
   7585 N          24.2565    8.1620   23.6187 N.3   1897  UNL1897    -0.3437
   7586 H          23.6350    8.4848   24.3589 H     1897  UNL1897     0.1146
   7587 H          25.1626    8.0096   24.0592 H     1897  UNL1897     0.1146
   7588 H          23.9168    7.2399   23.3490 H     1897  UNL1897     0.1146
   7589 N          24.0134    7.8537   25.9927 N.3   1898  UNL1898    -0.3437
   7590 H          24.1412    7.4705   26.9282 H     1898  UNL1898     0.1146
   7591 H          23.9183    8.8612   26.1124 H     1898  UNL1898     0.1146
   7592 H          24.8980    7.7108   25.5074 H     1898  UNL1898     0.1146
   7593 N          23.9661    7.9635   29.3203 N.3   1899  UNL1899    -0.3437
   7594 H          24.1038    7.3700   30.1370 H     1899  UNL1899     0.1146
   7595 H          24.2452    8.9015   29.6044 H     1899  UNL1899     0.1146
   7596 H          24.6558    7.6612   28.6338 H     1899  UNL1899     0.1146
   7597 N          24.0499   10.6125    1.0703 N.3   1900  UNL1900    -0.3437
   7598 H          23.6082    9.7407    0.7818 H     1900  UNL1900     0.1146
   7599 H          24.7755   10.3525    1.7369 H     1900  UNL1900     0.1146
   7600 H          24.5374   10.9658    0.2482 H     1900  UNL1900     0.1146
   7601 N          24.0499   10.6125    3.3590 N.3   1901  UNL1901    -0.3437
   7602 H          23.6082    9.7407    3.0705 H     1901  UNL1901     0.1146
   7603 H          24.7755   10.3525    4.0256 H     1901  UNL1901     0.1146
   7604 H          24.5374   10.9658    2.5369 H     1901  UNL1901     0.1146
   7605 N          24.0499   10.6125    5.6477 N.3   1902  UNL1902    -0.3437
   7606 H          23.6082    9.7407    5.3592 H     1902  UNL1902     0.1146
   7607 H          24.7755   10.3525    6.3143 H     1902  UNL1902     0.1146
   7608 H          24.5374   10.9658    4.8256 H     1902  UNL1902     0.1146
   7609 N          24.0499   10.6125    7.9365 N.3   1903  UNL1903    -0.3437
   7610 H          23.6082    9.7407    7.6479 H     1903  UNL1903     0.1146
   7611 H          24.7755   10.3525    8.6031 H     1903  UNL1903     0.1146
   7612 H          24.5374   10.9658    7.1144 H     1903  UNL1903     0.1146
   7613 N          24.0499   10.6125   10.2252 N.3   1904  UNL1904    -0.3437
   7614 H          23.6082    9.7407    9.9367 H     1904  UNL1904     0.1146
   7615 H          24.7755   10.3525   10.8918 H     1904  UNL1904     0.1146
   7616 H          24.5374   10.9658    9.4031 H     1904  UNL1904     0.1146
   7617 N          24.0499   10.6125   12.5139 N.3   1905  UNL1905    -0.3437
   7618 H          23.6082    9.7407   12.2254 H     1905  UNL1905     0.1146
   7619 H          24.7755   10.3525   13.1805 H     1905  UNL1905     0.1146
   7620 H          24.5374   10.9658   11.6918 H     1905  UNL1905     0.1146
   7621 N          24.0499   10.6125   14.8026 N.3   1906  UNL1906    -0.3437
   7622 H          23.6082    9.7407   14.5141 H     1906  UNL1906     0.1146
   7623 H          24.7755   10.3525   15.4692 H     1906  UNL1906     0.1146
   7624 H          24.5374   10.9658   13.9805 H     1906  UNL1906     0.1146
   7625 N          24.0499   10.6125   17.0913 N.3   1907  UNL1907    -0.3437
   7626 H          23.6082    9.7407   16.8028 H     1907  UNL1907     0.1146
   7627 H          24.7755   10.3525   17.7579 H     1907  UNL1907     0.1146
   7628 H          24.5374   10.9658   16.2692 H     1907  UNL1907     0.1146
   7629 N          24.0499   10.6125   19.3800 N.3   1908  UNL1908    -0.3437
   7630 H          23.6082    9.7407   19.0915 H     1908  UNL1908     0.1146
   7631 H          24.7755   10.3525   20.0466 H     1908  UNL1908     0.1146
   7632 H          24.5374   10.9658   18.5579 H     1908  UNL1908     0.1146
   7633 N          24.0134   10.2975   21.4152 N.3   1909  UNL1909    -0.3437
   7634 H          24.1412    9.9143   22.3508 H     1909  UNL1909     0.1146
   7635 H          23.9183   11.3050   21.5350 H     1909  UNL1909     0.1146
   7636 H          24.8980   10.1547   20.9300 H     1909  UNL1909     0.1146
   7637 N          24.0499   10.6125   23.9575 N.3   1910  UNL1910    -0.3437
   7638 H          23.6082    9.7407   23.6690 H     1910  UNL1910     0.1146
   7639 H          24.7755   10.3525   24.6241 H     1910  UNL1910     0.1146
   7640 H          24.5374   10.9658   23.1354 H     1910  UNL1910     0.1146
   7641 N          24.0499   10.6125   26.2462 N.3   1911  UNL1911    -0.3437
   7642 H          23.6082    9.7407   25.9577 H     1911  UNL1911     0.1146
   7643 H          24.7755   10.3525   26.9128 H     1911  UNL1911     0.1146
   7644 H          24.5374   10.9658   25.4241 H     1911  UNL1911     0.1146
   7645 N          23.9661   10.4074   29.3203 N.3   1912  UNL1912    -0.3437
   7646 H          24.1038    9.8138   30.1370 H     1912  UNL1912     0.1146
   7647 H          24.2452   11.3453   29.6044 H     1912  UNL1912     0.1146
   7648 H          24.6558   10.1050   28.6338 H     1912  UNL1912     0.1146
   7649 N          24.0499   13.0563    1.0703 N.3   1913  UNL1913    -0.3437
   7650 H          23.6082   12.1845    0.7818 H     1913  UNL1913     0.1146
   7651 H          24.7755   12.7963    1.7369 H     1913  UNL1913     0.1146
   7652 H          24.5374   13.4096    0.2482 H     1913  UNL1913     0.1146
   7653 N          24.0499   13.0563    3.3590 N.3   1914  UNL1914    -0.3437
   7654 H          23.6082   12.1845    3.0705 H     1914  UNL1914     0.1146
   7655 H          24.7755   12.7963    4.0256 H     1914  UNL1914     0.1146
   7656 H          24.5374   13.4096    2.5369 H     1914  UNL1914     0.1146
   7657 N          24.0499   13.0563    5.6477 N.3   1915  UNL1915    -0.3437
   7658 H          23.6082   12.1845    5.3592 H     1915  UNL1915     0.1146
   7659 H          24.7755   12.7963    6.3143 H     1915  UNL1915     0.1146
   7660 H          24.5374   13.4096    4.8256 H     1915  UNL1915     0.1146
   7661 N          24.0499   13.0563    7.9365 N.3   1916  UNL1916    -0.3437
   7662 H          23.6082   12.1845    7.6479 H     1916  UNL1916     0.1146
   7663 H          24.7755   12.7963    8.6031 H     1916  UNL1916     0.1146
   7664 H          24.5374   13.4096    7.1144 H     1916  UNL1916     0.1146
   7665 N          24.0499   13.0563   10.2252 N.3   1917  UNL1917    -0.3437
   7666 H          23.6082   12.1845    9.9367 H     1917  UNL1917     0.1146
   7667 H          24.7755   12.7963   10.8918 H     1917  UNL1917     0.1146
   7668 H          24.5374   13.4096    9.4031 H     1917  UNL1917     0.1146
   7669 N          24.0499   12.8341   12.1806 N.3   1918  UNL1918    -0.3437
   7670 H          23.6082   13.1247   13.0517 H     1918  UNL1918     0.1146
   7671 H          24.7755   13.5237   11.9899 H     1918  UNL1918     0.1146
   7672 H          24.5374   11.9640   12.3895 H     1918  UNL1918     0.1146
   7673 N          24.0499   12.7000   14.8467 N.3   1919  UNL1919    -0.3437
   7674 H          23.6082   13.2240   14.0926 H     1919  UNL1919     0.1146
   7675 H          24.7755   12.1345   14.4084 H     1919  UNL1919     0.1146
   7676 H          24.5374   13.3881   15.4188 H     1919  UNL1919     0.1146
   7677 N          24.1800   12.8341   17.2679 N.3   1920  UNL1920    -0.3437
   7678 H          25.1422   13.1247   17.1004 H     1920  UNL1920     0.1146
   7679 H          23.5930   13.5237   16.8007 H     1920  UNL1920     0.1146
   7680 H          24.0556   11.9640   16.7523 H     1920  UNL1920     0.1146
   7681 N          24.0499   12.8341   19.0467 N.3   1921  UNL1921    -0.3437
   7682 H          23.6082   13.1247   19.9178 H     1921  UNL1921     0.1146
   7683 H          24.7755   13.5237   18.8560 H     1921  UNL1921     0.1146
   7684 H          24.5374   11.9640   19.2556 H     1921  UNL1921     0.1146
   7685 N          24.0499   12.8341   21.3354 N.3   1922  UNL1922    -0.3437
   7686 H          23.6082   13.1247   22.2065 H     1922  UNL1922     0.1146
   7687 H          24.7755   13.5237   21.1447 H     1922  UNL1922     0.1146
   7688 H          24.5374   11.9640   21.5443 H     1922  UNL1922     0.1146
   7689 N          24.0499   12.7000   24.0016 N.3   1923  UNL1923    -0.3437
   7690 H          23.6082   13.2240   23.2474 H     1923  UNL1923     0.1146
   7691 H          24.7755   12.1345   23.5632 H     1923  UNL1923     0.1146
   7692 H          24.5374   13.3881   24.5736 H     1923  UNL1923     0.1146
   7693 N          24.1800   12.8341   26.4227 N.3   1924  UNL1924    -0.3437
   7694 H          25.1422   13.1247   26.2553 H     1924  UNL1924     0.1146
   7695 H          23.5930   13.5237   25.9555 H     1924  UNL1924     0.1146
   7696 H          24.0556   11.9640   25.9071 H     1924  UNL1924     0.1146
   7697 N          23.9661   12.8512   29.3203 N.3   1925  UNL1925    -0.3437
   7698 H          24.1038   12.2576   30.1370 H     1925  UNL1925     0.1146
   7699 H          24.2452   13.7891   29.6044 H     1925  UNL1925     0.1146
   7700 H          24.6558   12.5488   28.6338 H     1925  UNL1925     0.1146
   7701 N          24.0499   15.5001    1.0703 N.3   1926  UNL1926    -0.3437
   7702 H          23.6082   14.6283    0.7818 H     1926  UNL1926     0.1146
   7703 H          24.7755   15.2401    1.7369 H     1926  UNL1926     0.1146
   7704 H          24.5374   15.8534    0.2482 H     1926  UNL1926     0.1146
   7705 N          24.0499   15.5001    3.3590 N.3   1927  UNL1927    -0.3437
   7706 H          23.6082   14.6283    3.0705 H     1927  UNL1927     0.1146
   7707 H          24.7755   15.2401    4.0256 H     1927  UNL1927     0.1146
   7708 H          24.5374   15.8534    2.5369 H     1927  UNL1927     0.1146
   7709 N          24.0499   15.5001    5.6477 N.3   1928  UNL1928    -0.3437
   7710 H          23.6082   14.6283    5.3592 H     1928  UNL1928     0.1146
   7711 H          24.7755   15.2401    6.3143 H     1928  UNL1928     0.1146
   7712 H          24.5374   15.8534    4.8256 H     1928  UNL1928     0.1146
   7713 N          24.0499   15.5001    7.9365 N.3   1929  UNL1929    -0.3437
   7714 H          23.6082   14.6283    7.6479 H     1929  UNL1929     0.1146
   7715 H          24.7755   15.2401    8.6031 H     1929  UNL1929     0.1146
   7716 H          24.5374   15.8534    7.1144 H     1929  UNL1929     0.1146
   7717 N          24.0499   15.5001   10.2252 N.3   1930  UNL1930    -0.3437
   7718 H          23.6082   14.6283    9.9367 H     1930  UNL1930     0.1146
   7719 H          24.7755   15.2401   10.8918 H     1930  UNL1930     0.1146
   7720 H          24.5374   15.8534    9.4031 H     1930  UNL1930     0.1146
   7721 N          24.0499   15.2779   12.1806 N.3   1931  UNL1931    -0.3437
   7722 H          23.6082   15.5685   13.0517 H     1931  UNL1931     0.1146
   7723 H          24.7755   15.9675   11.9899 H     1931  UNL1931     0.1146
   7724 H          24.5374   14.4078   12.3895 H     1931  UNL1931     0.1146
   7725 N          24.0134   15.1851   14.5491 N.3   1932  UNL1932    -0.3437
   7726 H          24.1412   14.8019   15.4846 H     1932  UNL1932     0.1146
   7727 H          23.9183   16.1926   14.6688 H     1932  UNL1932     0.1146
   7728 H          24.8980   15.0423   14.0639 H     1932  UNL1932     0.1146
   7729 N          24.0499   15.5001   17.0913 N.3   1933  UNL1933    -0.3437
   7730 H          23.6082   14.6283   16.8028 H     1933  UNL1933     0.1146
   7731 H          24.7755   15.2401   17.7579 H     1933  UNL1933     0.1146
   7732 H          24.5374   15.8534   16.2692 H     1933  UNL1933     0.1146
   7733 N          24.0134   15.1851   19.1265 N.3   1934  UNL1934    -0.3437
   7734 H          24.1412   14.8019   20.0621 H     1934  UNL1934     0.1146
   7735 H          23.9183   16.1926   19.2462 H     1934  UNL1934     0.1146
   7736 H          24.8980   15.0423   18.6413 H     1934  UNL1934     0.1146
   7737 N          24.0499   15.1438   21.7128 N.3   1935  UNL1935    -0.3437
   7738 H          23.6082   15.6678   20.9587 H     1935  UNL1935     0.1146
   7739 H          24.7755   14.5784   21.2745 H     1935  UNL1935     0.1146
   7740 H          24.5374   15.8319   22.2849 H     1935  UNL1935     0.1146
   7741 N          24.0499   15.5001   23.9575 N.3   1936  UNL1936    -0.3437
   7742 H          23.6082   14.6283   23.6690 H     1936  UNL1936     0.1146
   7743 H          24.7755   15.2401   24.6241 H     1936  UNL1936     0.1146
   7744 H          24.5374   15.8534   23.1354 H     1936  UNL1936     0.1146
   7745 N          24.0499   15.5001   26.2462 N.3   1937  UNL1937    -0.3437
   7746 H          23.6082   14.6283   25.9577 H     1937  UNL1937     0.1146
   7747 H          24.7755   15.2401   26.9128 H     1937  UNL1937     0.1146
   7748 H          24.5374   15.8534   25.4241 H     1937  UNL1937     0.1146
   7749 N          23.9661   15.2950   29.3203 N.3   1938  UNL1938    -0.3437
   7750 H          24.1038   14.7014   30.1370 H     1938  UNL1938     0.1146
   7751 H          24.2452   16.2329   29.6044 H     1938  UNL1938     0.1146
   7752 H          24.6558   14.9926   28.6338 H     1938  UNL1938     0.1146
   7753 N          24.0499   17.7217    0.7370 N.3   1939  UNL1939    -0.3437
   7754 H          23.6082   18.0123    1.6081 H     1939  UNL1939     0.1146
   7755 H          24.7755   18.4114    0.5463 H     1939  UNL1939     0.1146
   7756 H          24.5374   16.8517    0.9459 H     1939  UNL1939     0.1146
   7757 N          24.0499   17.7217    3.0257 N.3   1940  UNL1940    -0.3437
   7758 H          23.6082   18.0123    3.8968 H     1940  UNL1940     0.1146
   7759 H          24.7755   18.4114    2.8350 H     1940  UNL1940     0.1146
   7760 H          24.5374   16.8517    3.2346 H     1940  UNL1940     0.1146
   7761 N          24.0499   17.7217    5.3144 N.3   1941  UNL1941    -0.3437
   7762 H          23.6082   18.0123    6.1855 H     1941  UNL1941     0.1146
   7763 H          24.7755   18.4114    5.1237 H     1941  UNL1941     0.1146
   7764 H          24.5374   16.8517    5.5233 H     1941  UNL1941     0.1146
   7765 N          24.0499   17.7217    7.6031 N.3   1942  UNL1942    -0.3437
   7766 H          23.6082   18.0123    8.4742 H     1942  UNL1942     0.1146
   7767 H          24.7755   18.4114    7.4124 H     1942  UNL1942     0.1146
   7768 H          24.5374   16.8517    7.8120 H     1942  UNL1942     0.1146
   7769 N          24.0499   17.7217    9.8918 N.3   1943  UNL1943    -0.3437
   7770 H          23.6082   18.0123   10.7629 H     1943  UNL1943     0.1146
   7771 H          24.7755   18.4114    9.7011 H     1943  UNL1943     0.1146
   7772 H          24.5374   16.8517   10.1007 H     1943  UNL1943     0.1146
   7773 N          24.2871   17.5306   12.2090 N.3   1944  UNL1944    -0.3437
   7774 H          23.3426   17.5326   12.5915 H     1944  UNL1944     0.1146
   7775 H          24.4267   18.4538   11.8007 H     1944  UNL1944     0.1146
   7776 H          24.9145   17.4801   13.0103 H     1944  UNL1944     0.1146
   7777 N          24.1800   17.7217   14.9792 N.3   1945  UNL1945    -0.3437
   7778 H          25.1422   18.0123   14.8117 H     1945  UNL1945     0.1146
   7779 H          23.5930   18.4114   14.5120 H     1945  UNL1945     0.1146
   7780 H          24.0556   16.8517   14.4636 H     1945  UNL1945     0.1146
   7781 N          24.0499   17.7217   16.7580 N.3   1946  UNL1946    -0.3437
   7782 H          23.6082   18.0123   17.6291 H     1946  UNL1946     0.1146
   7783 H          24.7755   18.4114   16.5673 H     1946  UNL1946     0.1146
   7784 H          24.5374   16.8517   16.9669 H     1946  UNL1946     0.1146
   7785 N          24.0499   17.7217   19.0467 N.3   1947  UNL1947    -0.3437
   7786 H          23.6082   18.0123   19.9178 H     1947  UNL1947     0.1146
   7787 H          24.7755   18.4114   18.8560 H     1947  UNL1947     0.1146
   7788 H          24.5374   16.8517   19.2556 H     1947  UNL1947     0.1146
   7789 N          24.0499   17.7217   21.3354 N.3   1948  UNL1948    -0.3437
   7790 H          23.6082   18.0123   22.2065 H     1948  UNL1948     0.1146
   7791 H          24.7755   18.4114   21.1447 H     1948  UNL1948     0.1146
   7792 H          24.5374   16.8517   21.5443 H     1948  UNL1948     0.1146
   7793 N          24.0499   17.7217   23.6241 N.3   1949  UNL1949    -0.3437
   7794 H          23.6082   18.0123   24.4952 H     1949  UNL1949     0.1146
   7795 H          24.7755   18.4114   23.4334 H     1949  UNL1949     0.1146
   7796 H          24.5374   16.8517   23.8330 H     1949  UNL1949     0.1146
   7797 N          24.0499   17.7217   25.9128 N.3   1950  UNL1950    -0.3437
   7798 H          23.6082   18.0123   26.7840 H     1950  UNL1950     0.1146
   7799 H          24.7755   18.4114   25.7221 H     1950  UNL1950     0.1146
   7800 H          24.5374   16.8517   26.1217 H     1950  UNL1950     0.1146
   7801 N          23.9661   17.7388   29.3203 N.3   1951  UNL1951    -0.3437
   7802 H          24.1038   17.1452   30.1370 H     1951  UNL1951     0.1146
   7803 H          24.2452   18.6767   29.6044 H     1951  UNL1951     0.1146
   7804 H          24.6558   17.4364   28.6338 H     1951  UNL1951     0.1146
   7805 N          24.0499   20.1656    0.7370 N.3   1952  UNL1952    -0.3437
   7806 H          23.6082   20.4562    1.6081 H     1952  UNL1952     0.1146
   7807 H          24.7755   20.8552    0.5463 H     1952  UNL1952     0.1146
   7808 H          24.5374   19.2955    0.9459 H     1952  UNL1952     0.1146
   7809 N          24.0499   20.0314    3.4031 N.3   1953  UNL1953    -0.3437
   7810 H          23.6082   20.5554    2.6490 H     1953  UNL1953     0.1146
   7811 H          24.7755   19.4660    2.9648 H     1953  UNL1953     0.1146
   7812 H          24.5374   20.7195    3.9752 H     1953  UNL1953     0.1146
   7813 N          24.1800   20.1656    5.8243 N.3   1954  UNL1954    -0.3437
   7814 H          25.1422   20.4562    5.6568 H     1954  UNL1954     0.1146
   7815 H          23.5930   20.8552    5.3571 H     1954  UNL1954     0.1146
   7816 H          24.0556   19.2955    5.3087 H     1954  UNL1954     0.1146
   7817 N          24.0499   20.3877    7.9365 N.3   1955  UNL1955    -0.3437
   7818 H          23.6082   19.5159    7.6479 H     1955  UNL1955     0.1146
   7819 H          24.7755   20.1278    8.6031 H     1955  UNL1955     0.1146
   7820 H          24.5374   20.7410    7.1144 H     1955  UNL1955     0.1146
   7821 N          24.0499   20.3877   10.2252 N.3   1956  UNL1956    -0.3437
   7822 H          23.6082   19.5159    9.9367 H     1956  UNL1956     0.1146
   7823 H          24.7755   20.1278   10.8918 H     1956  UNL1956     0.1146
   7824 H          24.5374   20.7410    9.4031 H     1956  UNL1956     0.1146
   7825 N          24.0499   20.1656   12.1806 N.3   1957  UNL1957    -0.3437
   7826 H          23.6082   20.4562   13.0517 H     1957  UNL1957     0.1146
   7827 H          24.7755   20.8552   11.9899 H     1957  UNL1957     0.1146
   7828 H          24.5374   19.2955   12.3895 H     1957  UNL1957     0.1146
   7829 N          24.2565   20.3810   14.4638 N.3   1958  UNL1958    -0.3437
   7830 H          23.6350   20.7038   15.2040 H     1958  UNL1958     0.1146
   7831 H          25.1626   20.2286   14.9044 H     1958  UNL1958     0.1146
   7832 H          23.9168   19.4589   14.1941 H     1958  UNL1958     0.1146
   7833 N          24.2565   20.3810   16.7525 N.3   1959  UNL1959    -0.3437
   7834 H          23.6350   20.7038   17.4928 H     1959  UNL1959     0.1146
   7835 H          25.1626   20.2286   17.1931 H     1959  UNL1959     0.1146
   7836 H          23.9168   19.4589   16.4829 H     1959  UNL1959     0.1146
   7837 N          24.2565   20.3810   19.0413 N.3   1960  UNL1960    -0.3437
   7838 H          23.6350   20.7038   19.7815 H     1960  UNL1960     0.1146
   7839 H          25.1626   20.2286   19.4818 H     1960  UNL1960     0.1146
   7840 H          23.9168   19.4589   18.7716 H     1960  UNL1960     0.1146
   7841 N          24.0499   20.1656   21.3354 N.3   1961  UNL1961    -0.3437
   7842 H          23.6082   20.4562   22.2065 H     1961  UNL1961     0.1146
   7843 H          24.7755   20.8552   21.1447 H     1961  UNL1961     0.1146
   7844 H          24.5374   19.2955   21.5443 H     1961  UNL1961     0.1146
   7845 N          24.0499   20.0314   24.0016 N.3   1962  UNL1962    -0.3437
   7846 H          23.6082   20.5554   23.2474 H     1962  UNL1962     0.1146
   7847 H          24.7755   19.4660   23.5632 H     1962  UNL1962     0.1146
   7848 H          24.5374   20.7195   24.5736 H     1962  UNL1962     0.1146
   7849 N          24.1800   20.1656   26.4227 N.3   1963  UNL1963    -0.3437
   7850 H          25.1422   20.4562   26.2553 H     1963  UNL1963     0.1146
   7851 H          23.5930   20.8552   25.9555 H     1963  UNL1963     0.1146
   7852 H          24.0556   19.2955   25.9071 H     1963  UNL1963     0.1146
   7853 N          23.9661   20.1826   29.3203 N.3   1964  UNL1964    -0.3437
   7854 H          24.1038   19.5890   30.1370 H     1964  UNL1964     0.1146
   7855 H          24.2452   21.1205   29.6044 H     1964  UNL1964     0.1146
   7856 H          24.6558   19.8802   28.6338 H     1964  UNL1964     0.1146
   7857 N          24.0499   22.8315    1.3590 N.3   1965  UNL1965    -0.3437
   7858 H          23.6082   21.9597    1.0705 H     1965  UNL1965     0.1146
   7859 H          24.7755   22.5716    2.0256 H     1965  UNL1965     0.1146
   7860 H          24.5374   23.1848    0.5369 H     1965  UNL1965     0.1146
   7861 N          24.0499   22.8315    3.6477 N.3   1966  UNL1966    -0.3437
   7862 H          23.6082   21.9597    3.3592 H     1966  UNL1966     0.1146
   7863 H          24.7755   22.5716    4.3143 H     1966  UNL1966     0.1146
   7864 H          24.5374   23.1848    2.8256 H     1966  UNL1966     0.1146
   7865 N          24.0499   22.8315    5.9365 N.3   1967  UNL1967    -0.3437
   7866 H          23.6082   21.9597    5.6479 H     1967  UNL1967     0.1146
   7867 H          24.7755   22.5716    6.6031 H     1967  UNL1967     0.1146
   7868 H          24.5374   23.1848    5.1144 H     1967  UNL1967     0.1146
   7869 N          24.0499   22.4752   10.2693 N.3   1968  UNL1968    -0.3437
   7870 H          23.6082   22.9992    9.5151 H     1968  UNL1968     0.1146
   7871 H          24.7755   21.9098    9.8309 H     1968  UNL1968     0.1146
   7872 H          24.5374   23.1633   10.8413 H     1968  UNL1968     0.1146
   7873 N          24.0134   22.5165   12.2604 N.3   1969  UNL1969    -0.3437
   7874 H          24.1412   22.1333   13.1959 H     1969  UNL1969     0.1146
   7875 H          23.9183   23.5240   12.3801 H     1969  UNL1969     0.1146
   7876 H          24.8980   22.3737   11.7751 H     1969  UNL1969     0.1146
   7877 N          24.2565   22.8248   14.4638 N.3   1970  UNL1970    -0.3437
   7878 H          23.6350   23.1476   15.2040 H     1970  UNL1970     0.1146
   7879 H          25.1626   22.6724   14.9044 H     1970  UNL1970     0.1146
   7880 H          23.9168   21.9027   14.1941 H     1970  UNL1970     0.1146
   7881 N          24.0134   22.5165   16.8378 N.3   1971  UNL1971    -0.3437
   7882 H          24.1412   22.1333   17.7733 H     1971  UNL1971     0.1146
   7883 H          23.9183   23.5240   16.9575 H     1971  UNL1971     0.1146
   7884 H          24.8980   22.3737   16.3526 H     1971  UNL1971     0.1146
   7885 N          24.0499   22.8315   19.3800 N.3   1972  UNL1972    -0.3437
   7886 H          23.6082   21.9597   19.0915 H     1972  UNL1972     0.1146
   7887 H          24.7755   22.5716   20.0466 H     1972  UNL1972     0.1146
   7888 H          24.5374   23.1848   18.5579 H     1972  UNL1972     0.1146
   7889 N          24.0499   22.8315   21.6687 N.3   1973  UNL1973    -0.3437
   7890 H          23.6082   21.9597   21.3802 H     1973  UNL1973     0.1146
   7891 H          24.7755   22.5716   22.3353 H     1973  UNL1973     0.1146
   7892 H          24.5374   23.1848   20.8466 H     1973  UNL1973     0.1146
   7893 N          24.0499   22.6094   23.6241 N.3   1974  UNL1974    -0.3437
   7894 H          23.6082   22.9000   24.4952 H     1974  UNL1974     0.1146
   7895 H          24.7755   23.2990   23.4334 H     1974  UNL1974     0.1146
   7896 H          24.5374   21.7393   23.8330 H     1974  UNL1974     0.1146
   7897 N          24.0499   22.4752   26.2903 N.3   1975  UNL1975    -0.3437
   7898 H          23.6082   22.9992   25.5361 H     1975  UNL1975     0.1146
   7899 H          24.7755   21.9098   25.8519 H     1975  UNL1975     0.1146
   7900 H          24.5374   23.1633   26.8623 H     1975  UNL1975     0.1146
   7901 N          23.9661   22.6264   29.3203 N.3   1976  UNL1976    -0.3437
   7902 H          24.1038   22.0328   30.1370 H     1976  UNL1976     0.1146
   7903 H          24.2452   23.5643   29.6044 H     1976  UNL1976     0.1146
   7904 H          24.6558   22.3240   28.6338 H     1976  UNL1976     0.1146
   7905 N          24.0499   25.2753    1.0703 N.3   1977  UNL1977    -0.3437
   7906 H          23.6082   24.4035    0.7818 H     1977  UNL1977     0.1146
   7907 H          24.7755   25.0154    1.7369 H     1977  UNL1977     0.1146
   7908 H          24.5374   25.6286    0.2482 H     1977  UNL1977     0.1146
   7909 N          24.0499   25.0532    3.0257 N.3   1978  UNL1978    -0.3437
   7910 H          23.6082   25.3438    3.8968 H     1978  UNL1978     0.1146
   7911 H          24.7755   25.7428    2.8350 H     1978  UNL1978     0.1146
   7912 H          24.5374   24.1831    3.2346 H     1978  UNL1978     0.1146
   7913 N          24.0499   24.9191    5.6918 N.3   1979  UNL1979    -0.3437
   7914 H          23.6082   25.4430    4.9377 H     1979  UNL1979     0.1146
   7915 H          24.7755   24.3536    5.2535 H     1979  UNL1979     0.1146
   7916 H          24.5374   25.6071    6.2639 H     1979  UNL1979     0.1146
   7917 N          24.0499   25.2753    7.9365 N.3   1980  UNL1980    -0.3437
   7918 H          23.6082   24.4035    7.6479 H     1980  UNL1980     0.1146
   7919 H          24.7755   25.0154    8.6031 H     1980  UNL1980     0.1146
   7920 H          24.5374   25.6286    7.1144 H     1980  UNL1980     0.1146
   7921 N          24.0499   25.2753   10.2252 N.3   1981  UNL1981    -0.3437
   7922 H          23.6082   24.4035    9.9367 H     1981  UNL1981     0.1146
   7923 H          24.7755   25.0154   10.8918 H     1981  UNL1981     0.1146
   7924 H          24.5374   25.6286    9.4031 H     1981  UNL1981     0.1146
   7925 N          24.0499   25.0532   12.1806 N.3   1982  UNL1982    -0.3437
   7926 H          23.6082   25.3438   13.0517 H     1982  UNL1982     0.1146
   7927 H          24.7755   25.7428   11.9899 H     1982  UNL1982     0.1146
   7928 H          24.5374   24.1831   12.3895 H     1982  UNL1982     0.1146
   7929 N          24.0499   24.9191   14.8467 N.3   1983  UNL1983    -0.3437
   7930 H          23.6082   25.4430   14.0926 H     1983  UNL1983     0.1146
   7931 H          24.7755   24.3536   14.4084 H     1983  UNL1983     0.1146
   7932 H          24.5374   25.6071   15.4188 H     1983  UNL1983     0.1146
   7933 N          24.1800   25.0532   17.2679 N.3   1984  UNL1984    -0.3437
   7934 H          25.1422   25.3438   17.1004 H     1984  UNL1984     0.1146
   7935 H          23.5930   25.7428   16.8007 H     1984  UNL1984     0.1146
   7936 H          24.0556   24.1831   16.7523 H     1984  UNL1984     0.1146
   7937 N          24.0499   25.0532   19.0467 N.3   1985  UNL1985    -0.3437
   7938 H          23.6082   25.3438   19.9178 H     1985  UNL1985     0.1146
   7939 H          24.7755   25.7428   18.8560 H     1985  UNL1985     0.1146
   7940 H          24.5374   24.1831   19.2556 H     1985  UNL1985     0.1146
   7941 N          24.0499   25.0532   21.3354 N.3   1986  UNL1986    -0.3437
   7942 H          23.6082   25.3438   22.2065 H     1986  UNL1986     0.1146
   7943 H          24.7755   25.7428   21.1447 H     1986  UNL1986     0.1146
   7944 H          24.5374   24.1831   21.5443 H     1986  UNL1986     0.1146
   7945 N          24.2871   24.8620   23.6526 N.3   1987  UNL1987    -0.3437
   7946 H          23.3426   24.8640   24.0351 H     1987  UNL1987     0.1146
   7947 H          24.4267   25.7852   23.2443 H     1987  UNL1987     0.1146
   7948 H          24.9145   24.8115   24.4539 H     1987  UNL1987     0.1146
   7949 N          24.0499   25.2753   26.2462 N.3   1988  UNL1988    -0.3437
   7950 H          23.6082   24.4035   25.9577 H     1988  UNL1988     0.1146
   7951 H          24.7755   25.0154   26.9128 H     1988  UNL1988     0.1146
   7952 H          24.5374   25.6286   25.4241 H     1988  UNL1988     0.1146
   7953 N          23.9661   25.0702   29.3203 N.3   1989  UNL1989    -0.3437
   7954 H          24.1038   24.4766   30.1370 H     1989  UNL1989     0.1146
   7955 H          24.2452   26.0081   29.6044 H     1989  UNL1989     0.1146
   7956 H          24.6558   24.7678   28.6338 H     1989  UNL1989     0.1146
   7957 N          24.0499   27.4970    0.7370 N.3   1990  UNL1990    -0.3437
   7958 H          23.6082   27.7876    1.6081 H     1990  UNL1990     0.1146
   7959 H          24.7755   28.1866    0.5463 H     1990  UNL1990     0.1146
   7960 H          24.5374   26.6269    0.9459 H     1990  UNL1990     0.1146
   7961 N          24.0499   27.3629    3.4031 N.3   1991  UNL1991    -0.3437
   7962 H          23.6082   27.8868    2.6490 H     1991  UNL1991     0.1146
   7963 H          24.7755   26.7974    2.9648 H     1991  UNL1991     0.1146
   7964 H          24.5374   28.0509    3.9752 H     1991  UNL1991     0.1146
   7965 N          24.0499   27.4970    5.3144 N.3   1992  UNL1992    -0.3437
   7966 H          23.6082   27.7876    6.1855 H     1992  UNL1992     0.1146
   7967 H          24.7755   28.1866    5.1237 H     1992  UNL1992     0.1146
   7968 H          24.5374   26.6269    5.5233 H     1992  UNL1992     0.1146
   7969 N          24.0499   27.4970    7.6031 N.3   1993  UNL1993    -0.3437
   7970 H          23.6082   27.7876    8.4742 H     1993  UNL1993     0.1146
   7971 H          24.7755   28.1866    7.4124 H     1993  UNL1993     0.1146
   7972 H          24.5374   26.6269    7.8120 H     1993  UNL1993     0.1146
   7973 N          24.2565   27.7124    9.8864 N.3   1994  UNL1994    -0.3437
   7974 H          23.6350   28.0352   10.6266 H     1994  UNL1994     0.1146
   7975 H          25.1626   27.5600   10.3270 H     1994  UNL1994     0.1146
   7976 H          23.9168   26.7903    9.6167 H     1994  UNL1994     0.1146
   7977 N          24.2565   27.7124   12.1751 N.3   1995  UNL1995    -0.3437
   7978 H          23.6350   28.0352   12.9153 H     1995  UNL1995     0.1146
   7979 H          25.1626   27.5600   12.6157 H     1995  UNL1995     0.1146
   7980 H          23.9168   26.7903   11.9054 H     1995  UNL1995     0.1146
   7981 N          24.0499   27.4970   14.4693 N.3   1996  UNL1996    -0.3437
   7982 H          23.6082   27.7876   15.3404 H     1996  UNL1996     0.1146
   7983 H          24.7755   28.1866   14.2786 H     1996  UNL1996     0.1146
   7984 H          24.5374   26.6269   14.6782 H     1996  UNL1996     0.1146
   7985 N          24.0499   27.3629   17.1354 N.3   1997  UNL1997    -0.3437
   7986 H          23.6082   27.8868   16.3813 H     1997  UNL1997     0.1146
   7987 H          24.7755   26.7974   16.6971 H     1997  UNL1997     0.1146
   7988 H          24.5374   28.0509   17.7075 H     1997  UNL1997     0.1146
   7989 N          24.1800   27.4970   19.5566 N.3   1998  UNL1998    -0.3437
   7990 H          25.1422   27.7876   19.3891 H     1998  UNL1998     0.1146
   7991 H          23.5930   28.1866   19.0894 H     1998  UNL1998     0.1146
   7992 H          24.0556   26.6269   19.0410 H     1998  UNL1998     0.1146
   7993 N          24.2565   27.7124   21.3300 N.3   1999  UNL1999    -0.3437
   7994 H          23.6350   28.0352   22.0702 H     1999  UNL1999     0.1146
   7995 H          25.1626   27.5600   21.7705 H     1999  UNL1999     0.1146
   7996 H          23.9168   26.7903   21.0603 H     1999  UNL1999     0.1146
   7997 N          24.0499   27.4970   23.6241 N.3   2000  UNL2000    -0.3437
   7998 H          23.6082   27.7876   24.4952 H     2000  UNL2000     0.1146
   7999 H          24.7755   28.1866   23.4334 H     2000  UNL2000     0.1146
   8000 H          24.5374   26.6269   23.8330 H     2000  UNL2000     0.1146
   8001 N          24.0134   27.4041   25.9927 N.3   2001  UNL2001    -0.3437
   8002 H          24.1412   27.0209   26.9282 H     2001  UNL2001     0.1146
   8003 H          23.9183   28.4116   26.1124 H     2001  UNL2001     0.1146
   8004 H          24.8980   27.2613   25.5074 H     2001  UNL2001     0.1146
   8005 N          23.9661   27.5140   29.3203 N.3   2002  UNL2002    -0.3437
   8006 H          24.1038   26.9204   30.1370 H     2002  UNL2002     0.1146
   8007 H          24.2452   28.4519   29.6044 H     2002  UNL2002     0.1146
   8008 H          24.6558   27.2116   28.6338 H     2002  UNL2002     0.1146
   8009 N          24.0499   30.9408    0.7370 N.3   2003  UNL2003    -0.3437
   8010 H          23.6082   31.2314    1.6081 H     2003  UNL2003     0.1146
   8011 H          24.7755   31.6304    0.5463 H     2003  UNL2003     0.1146
   8012 H          24.5374   30.0707    0.9459 H     2003  UNL2003     0.1146
   8013 N          24.0499   30.9408    3.0257 N.3   2004  UNL2004    -0.3437
   8014 H          23.6082   31.2314    3.8968 H     2004  UNL2004     0.1146
   8015 H          24.7755   31.6304    2.8350 H     2004  UNL2004     0.1146
   8016 H          24.5374   30.0707    3.2346 H     2004  UNL2004     0.1146
   8017 N          24.0499   30.9408    5.3144 N.3   2005  UNL2005    -0.3437
   8018 H          23.6082   31.2314    6.1855 H     2005  UNL2005     0.1146
   8019 H          24.7755   31.6304    5.1237 H     2005  UNL2005     0.1146
   8020 H          24.5374   30.0707    5.5233 H     2005  UNL2005     0.1146
   8021 N          24.1800   29.9408    8.1130 N.3   2006  UNL2006    -0.3437
   8022 H          25.1422   30.2314    7.9456 H     2006  UNL2006     0.1146
   8023 H          23.5930   30.6304    7.6458 H     2006  UNL2006     0.1146
   8024 H          24.0556   29.0707    7.5974 H     2006  UNL2006     0.1146
   8025 N          24.0499   30.9408    9.8918 N.3   2007  UNL2007    -0.3437
   8026 H          23.6082   31.2314   10.7629 H     2007  UNL2007     0.1146
   8027 H          24.7755   31.6304    9.7011 H     2007  UNL2007     0.1146
   8028 H          24.5374   30.0707   10.1007 H     2007  UNL2007     0.1146
   8029 N          24.0499   30.9408   12.1806 N.3   2008  UNL2008    -0.3437
   8030 H          23.6082   31.2314   13.0517 H     2008  UNL2008     0.1146
   8031 H          24.7755   31.6304   11.9899 H     2008  UNL2008     0.1146
   8032 H          24.5374   30.0707   12.3895 H     2008  UNL2008     0.1146
   8033 N          24.2397   30.7107   14.5467 N.3   2009  UNL2009    -0.3437
   8034 H          23.3052   31.0854   14.7036 H     2009  UNL2009     0.1146
   8035 H          24.7536   31.4367   14.0494 H     2009  UNL2009     0.1146
   8036 H          24.6724   30.6405   15.4667 H     2009  UNL2009     0.1146
   8037 N          24.0499   30.9408   16.7580 N.3   2010  UNL2010    -0.3437
   8038 H          23.6082   31.2314   17.6291 H     2010  UNL2010     0.1146
   8039 H          24.7755   31.6304   16.5673 H     2010  UNL2010     0.1146
   8040 H          24.5374   30.0707   16.9669 H     2010  UNL2010     0.1146
   8041 N          24.0499   30.9408   19.0467 N.3   2011  UNL2011    -0.3437
   8042 H          23.6082   31.2314   19.9178 H     2011  UNL2011     0.1146
   8043 H          24.7755   31.6304   18.8560 H     2011  UNL2011     0.1146
   8044 H          24.5374   30.0707   19.2556 H     2011  UNL2011     0.1146
   8045 N          24.0499   30.9408   21.3354 N.3   2012  UNL2012    -0.3437
   8046 H          23.6082   31.2314   22.2065 H     2012  UNL2012     0.1146
   8047 H          24.7755   31.6304   21.1447 H     2012  UNL2012     0.1146
   8048 H          24.5374   30.0707   21.5443 H     2012  UNL2012     0.1146
   8049 N          24.2276   31.1952   23.6576 N.3   2013  UNL2013    -0.3437
   8050 H          23.4215   31.1453   24.2790 H     2013  UNL2013     0.1146
   8051 H          25.0463   31.2400   24.2626 H     2013  UNL2013     0.1146
   8052 H          24.2754   30.2928   23.1867 H     2013  UNL2013     0.1146
   8053 N          24.0499   30.9408   25.9128 N.3   2014  UNL2014    -0.3437
   8054 H          23.6082   31.2314   26.7840 H     2014  UNL2014     0.1146
   8055 H          24.7755   31.6304   25.7221 H     2014  UNL2014     0.1146
   8056 H          24.5374   30.0707   26.1217 H     2014  UNL2014     0.1146
   8057 N          24.0499   29.9408   28.2016 N.3   2015  UNL2015    -0.3437
   8058 H          23.6082   30.2314   29.0727 H     2015  UNL2015     0.1146
   8059 H          24.7755   30.6304   28.0109 H     2015  UNL2015     0.1146
   8060 H          24.5374   29.0707   28.4105 H     2015  UNL2015     0.1146
   8061 N          26.5302    0.8136   -1.2630 N.3   2016  UNL2016    -0.3437
   8062 H          27.0274    0.9936   -0.3919 H     2016  UNL2016     0.1146
   8063 H          26.6485   -0.1804   -1.4537 H     2016  UNL2016     0.1146
   8064 H          25.5414    0.9438   -1.0541 H     2016  UNL2016     0.1146
   8065 N          26.2440    0.4810    1.4031 N.3   2017  UNL2017    -0.3437
   8066 H          25.8023    1.0050    0.6490 H     2017  UNL2017     0.1146
   8067 H          26.9696   -0.0845    0.9648 H     2017  UNL2017     0.1146
   8068 H          26.7315    1.1691    1.9752 H     2017  UNL2017     0.1146
   8069 N          26.2440    0.8372    3.6477 N.3   2018  UNL2018    -0.3437
   8070 H          25.8023   -0.0346    3.3592 H     2018  UNL2018     0.1146
   8071 H          26.9696    0.5773    4.3143 H     2018  UNL2018     0.1146
   8072 H          26.7315    1.1906    2.8256 H     2018  UNL2018     0.1146
   8073 N          26.2440    0.8372    5.9365 N.3   2019  UNL2019    -0.3437
   8074 H          25.8023   -0.0346    5.6479 H     2019  UNL2019     0.1146
   8075 H          26.9696    0.5773    6.6031 H     2019  UNL2019     0.1146
   8076 H          26.7315    1.1906    5.1144 H     2019  UNL2019     0.1146
   8077 N          26.2440    0.8372    8.2252 N.3   2020  UNL2020    -0.3437
   8078 H          25.8023   -0.0346    7.9367 H     2020  UNL2020     0.1146
   8079 H          26.9696    0.5773    8.8918 H     2020  UNL2020     0.1146
   8080 H          26.7315    1.1906    7.4031 H     2020  UNL2020     0.1146
   8081 N          26.2076    0.5223   12.2604 N.3   2021  UNL2021    -0.3437
   8082 H          26.3353    0.1391   13.1959 H     2021  UNL2021     0.1146
   8083 H          26.1125    1.5298   12.3801 H     2021  UNL2021     0.1146
   8084 H          27.0921    0.3794   11.7751 H     2021  UNL2021     0.1146
   8085 N          26.2076    0.5223   14.5491 N.3   2022  UNL2022    -0.3437
   8086 H          26.3353    0.1391   15.4846 H     2022  UNL2022     0.1146
   8087 H          26.1125    1.5298   14.6688 H     2022  UNL2022     0.1146
   8088 H          27.0921    0.3794   14.0639 H     2022  UNL2022     0.1146
   8089 N          26.2440    0.8372   17.0913 N.3   2023  UNL2023    -0.3437
   8090 H          25.8023   -0.0346   16.8028 H     2023  UNL2023     0.1146
   8091 H          26.9696    0.5773   17.7579 H     2023  UNL2023     0.1146
   8092 H          26.7315    1.1906   16.2692 H     2023  UNL2023     0.1146
   8093 N          26.2076    0.5223   19.1265 N.3   2024  UNL2024    -0.3437
   8094 H          26.3353    0.1391   20.0621 H     2024  UNL2024     0.1146
   8095 H          26.1125    1.5298   19.2462 H     2024  UNL2024     0.1146
   8096 H          27.0921    0.3794   18.6413 H     2024  UNL2024     0.1146
   8097 N          26.2076    0.5223   21.4152 N.3   2025  UNL2025    -0.3437
   8098 H          26.3353    0.1391   22.3508 H     2025  UNL2025     0.1146
   8099 H          26.1125    1.5298   21.5350 H     2025  UNL2025     0.1146
   8100 H          27.0921    0.3794   20.9300 H     2025  UNL2025     0.1146
   8101 N          26.2440    0.4810   24.0016 N.3   2026  UNL2026    -0.3437
   8102 H          25.8023    1.0050   23.2474 H     2026  UNL2026     0.1146
   8103 H          26.9696   -0.0845   23.5632 H     2026  UNL2026     0.1146
   8104 H          26.7315    1.1691   24.5736 H     2026  UNL2026     0.1146
   8105 N          26.2440    0.8372   26.2462 N.3   2027  UNL2027    -0.3437
   8106 H          25.8023   -0.0346   25.9577 H     2027  UNL2027     0.1146
   8107 H          26.9696    0.5773   26.9128 H     2027  UNL2027     0.1146
   8108 H          26.7315    1.1906   25.4241 H     2027  UNL2027     0.1146
   8109 N          26.1602    0.6321   29.3203 N.3   2028  UNL2028    -0.3437
   8110 H          26.2979    0.0386   30.1370 H     2028  UNL2028     0.1146
   8111 H          26.4393    1.5701   29.6044 H     2028  UNL2028     0.1146
   8112 H          26.8500    0.3298   28.6338 H     2028  UNL2028     0.1146
   8113 N          26.5743    2.9484    0.7370 N.3   2029  UNL2029    -0.3437
   8114 H          26.6059    2.4206    1.6081 H     2029  UNL2029     0.1146
   8115 H          25.5876    3.1170    0.5463 H     2029  UNL2029     0.1146
   8116 H          26.9797    3.8597    0.9459 H     2029  UNL2029     0.1146
   8117 N          26.3742    3.0589    3.5356 N.3   2030  UNL2030    -0.3437
   8118 H          27.3364    3.3495    3.3681 H     2030  UNL2030     0.1146
   8119 H          25.7871    3.7485    3.0684 H     2030  UNL2030     0.1146
   8120 H          26.2498    2.1888    3.0200 H     2030  UNL2030     0.1146
   8121 N          26.3742    3.0589    5.8243 N.3   2031  UNL2031    -0.3437
   8122 H          27.3364    3.3495    5.6568 H     2031  UNL2031     0.1146
   8123 H          25.7871    3.7485    5.3571 H     2031  UNL2031     0.1146
   8124 H          26.2498    2.1888    5.3087 H     2031  UNL2031     0.1146
   8125 N          26.2440    3.2810    7.9365 N.3   2032  UNL2032    -0.3437
   8126 H          25.8023    2.4092    7.6479 H     2032  UNL2032     0.1146
   8127 H          26.9696    3.0211    8.6031 H     2032  UNL2032     0.1146
   8128 H          26.7315    3.6344    7.1144 H     2032  UNL2032     0.1146
   8129 N          26.2076    2.9661    9.9717 N.3   2033  UNL2033    -0.3437
   8130 H          26.3353    2.5829   10.9072 H     2033  UNL2033     0.1146
   8131 H          26.1125    3.9736   10.0914 H     2033  UNL2033     0.1146
   8132 H          27.0921    2.8232    9.4864 H     2033  UNL2033     0.1146
   8133 N          26.2076    2.9661   12.2604 N.3   2034  UNL2034    -0.3437
   8134 H          26.3353    2.5829   13.1959 H     2034  UNL2034     0.1146
   8135 H          26.1125    3.9736   12.3801 H     2034  UNL2034     0.1146
   8136 H          27.0921    2.8232   11.7751 H     2034  UNL2034     0.1146
   8137 N          26.2076    2.9661   14.5491 N.3   2035  UNL2035    -0.3437
   8138 H          26.3353    2.5829   15.4846 H     2035  UNL2035     0.1146
   8139 H          26.1125    3.9736   14.6688 H     2035  UNL2035     0.1146
   8140 H          27.0921    2.8232   14.0639 H     2035  UNL2035     0.1146
   8141 N          26.2440    3.2810   17.0913 N.3   2036  UNL2036    -0.3437
   8142 H          25.8023    2.4092   16.8028 H     2036  UNL2036     0.1146
   8143 H          26.9696    3.0211   17.7579 H     2036  UNL2036     0.1146
   8144 H          26.7315    3.6344   16.2692 H     2036  UNL2036     0.1146
   8145 N          26.5743    2.9484   19.0467 N.3   2037  UNL2037    -0.3437
   8146 H          26.6059    2.4206   19.9178 H     2037  UNL2037     0.1146
   8147 H          25.5876    3.1170   18.8560 H     2037  UNL2037     0.1146
   8148 H          26.9797    3.8597   19.2556 H     2037  UNL2037     0.1146
   8149 N          26.3742    3.0589   21.8453 N.3   2038  UNL2038    -0.3437
   8150 H          27.3364    3.3495   21.6778 H     2038  UNL2038     0.1146
   8151 H          25.7871    3.7485   21.3781 H     2038  UNL2038     0.1146
   8152 H          26.2498    2.1888   21.3297 H     2038  UNL2038     0.1146
   8153 N          26.2076    2.9661   23.7040 N.3   2039  UNL2039    -0.3437
   8154 H          26.3353    2.5829   24.6395 H     2039  UNL2039     0.1146
   8155 H          26.1125    3.9736   23.8237 H     2039  UNL2039     0.1146
   8156 H          27.0921    2.8232   23.2187 H     2039  UNL2039     0.1146
   8157 N          26.2440    3.2810   26.2462 N.3   2040  UNL2040    -0.3437
   8158 H          25.8023    2.4092   25.9577 H     2040  UNL2040     0.1146
   8159 H          26.9696    3.0211   26.9128 H     2040  UNL2040     0.1146
   8160 H          26.7315    3.6344   25.4241 H     2040  UNL2040     0.1146
   8161 N          26.1602    3.0759   29.3203 N.3   2041  UNL2041    -0.3437
   8162 H          26.2979    2.4824   30.1370 H     2041  UNL2041     0.1146
   8163 H          26.4393    4.0139   29.6044 H     2041  UNL2041     0.1146
   8164 H          26.8500    2.7736   28.6338 H     2041  UNL2041     0.1146
   8165 N          26.2440    5.5027    0.7370 N.3   2042  UNL2042    -0.3437
   8166 H          25.8023    5.7933    1.6081 H     2042  UNL2042     0.1146
   8167 H          26.9696    6.1923    0.5463 H     2042  UNL2042     0.1146
   8168 H          26.7315    4.6326    0.9459 H     2042  UNL2042     0.1146
   8169 N          26.2440    5.5027    3.0257 N.3   2043  UNL2043    -0.3437
   8170 H          25.8023    5.7933    3.8968 H     2043  UNL2043     0.1146
   8171 H          26.9696    6.1923    2.8350 H     2043  UNL2043     0.1146
   8172 H          26.7315    4.6326    3.2346 H     2043  UNL2043     0.1146
   8173 N          26.2440    5.5027    5.3144 N.3   2044  UNL2044    -0.3437
   8174 H          25.8023    5.7933    6.1855 H     2044  UNL2044     0.1146
   8175 H          26.9696    6.1923    5.1237 H     2044  UNL2044     0.1146
   8176 H          26.7315    4.6326    5.5233 H     2044  UNL2044     0.1146
   8177 N          26.2440    5.5027    7.6031 N.3   2045  UNL2045    -0.3437
   8178 H          25.8023    5.7933    8.4742 H     2045  UNL2045     0.1146
   8179 H          26.9696    6.1923    7.4124 H     2045  UNL2045     0.1146
   8180 H          26.7315    4.6326    7.8120 H     2045  UNL2045     0.1146
   8181 N          26.2440    5.5027    9.8918 N.3   2046  UNL2046    -0.3437
   8182 H          25.8023    5.7933   10.7629 H     2046  UNL2046     0.1146
   8183 H          26.9696    6.1923    9.7011 H     2046  UNL2046     0.1146
   8184 H          26.7315    4.6326   10.1007 H     2046  UNL2046     0.1146
   8185 N          26.2440    5.5027   12.1806 N.3   2047  UNL2047    -0.3437
   8186 H          25.8023    5.7933   13.0517 H     2047  UNL2047     0.1146
   8187 H          26.9696    6.1923   11.9899 H     2047  UNL2047     0.1146
   8188 H          26.7315    4.6326   12.3895 H     2047  UNL2047     0.1146
   8189 N          26.2440    5.5027   14.4693 N.3   2048  UNL2048    -0.3437
   8190 H          25.8023    5.7933   15.3404 H     2048  UNL2048     0.1146
   8191 H          26.9696    6.1923   14.2786 H     2048  UNL2048     0.1146
   8192 H          26.7315    4.6326   14.6782 H     2048  UNL2048     0.1146
   8193 N          26.2440    5.5027   16.7580 N.3   2049  UNL2049    -0.3437
   8194 H          25.8023    5.7933   17.6291 H     2049  UNL2049     0.1146
   8195 H          26.9696    6.1923   16.5673 H     2049  UNL2049     0.1146
   8196 H          26.7315    4.6326   16.9669 H     2049  UNL2049     0.1146
   8197 N          26.2440    5.5027   19.0467 N.3   2050  UNL2050    -0.3437
   8198 H          25.8023    5.7933   19.9178 H     2050  UNL2050     0.1146
   8199 H          26.9696    6.1923   18.8560 H     2050  UNL2050     0.1146
   8200 H          26.7315    4.6326   19.2556 H     2050  UNL2050     0.1146
   8201 N          26.2440    5.5027   21.3354 N.3   2051  UNL2051    -0.3437
   8202 H          25.8023    5.7933   22.2065 H     2051  UNL2051     0.1146
   8203 H          26.9696    6.1923   21.1447 H     2051  UNL2051     0.1146
   8204 H          26.7315    4.6326   21.5443 H     2051  UNL2051     0.1146
   8205 N          26.2440    5.5027   23.6241 N.3   2052  UNL2052    -0.3437
   8206 H          25.8023    5.7933   24.4952 H     2052  UNL2052     0.1146
   8207 H          26.9696    6.1923   23.4334 H     2052  UNL2052     0.1146
   8208 H          26.7315    4.6326   23.8330 H     2052  UNL2052     0.1146
   8209 N          26.2440    5.5027   25.9128 N.3   2053  UNL2053    -0.3437
   8210 H          25.8023    5.7933   26.7840 H     2053  UNL2053     0.1146
   8211 H          26.9696    6.1923   25.7221 H     2053  UNL2053     0.1146
   8212 H          26.7315    4.6326   26.1217 H     2053  UNL2053     0.1146
   8213 N          26.1602    5.5197   29.3203 N.3   2054  UNL2054    -0.3437
   8214 H          26.2979    4.9262   30.1370 H     2054  UNL2054     0.1146
   8215 H          26.4393    6.4577   29.6044 H     2054  UNL2054     0.1146
   8216 H          26.8500    5.2174   28.6338 H     2054  UNL2054     0.1146
   8217 N          26.2440    8.1686    1.0703 N.3   2055  UNL2055    -0.3437
   8218 H          25.8023    7.2968    0.7818 H     2055  UNL2055     0.1146
   8219 H          26.9696    7.9087    1.7369 H     2055  UNL2055     0.1146
   8220 H          26.7315    8.5220    0.2482 H     2055  UNL2055     0.1146
   8221 N          26.2440    7.9465    3.0257 N.3   2056  UNL2056    -0.3437
   8222 H          25.8023    8.2371    3.8968 H     2056  UNL2056     0.1146
   8223 H          26.9696    8.6361    2.8350 H     2056  UNL2056     0.1146
   8224 H          26.7315    7.0764    3.2346 H     2056  UNL2056     0.1146
   8225 N          26.2440    7.8124    5.6918 N.3   2057  UNL2057    -0.3437
   8226 H          25.8023    8.3364    4.9377 H     2057  UNL2057     0.1146
   8227 H          26.9696    7.2469    5.2535 H     2057  UNL2057     0.1146
   8228 H          26.7315    8.5005    6.2639 H     2057  UNL2057     0.1146
   8229 N          26.3742    7.9465    8.1130 N.3   2058  UNL2058    -0.3437
   8230 H          27.3364    8.2371    7.9456 H     2058  UNL2058     0.1146
   8231 H          25.7871    8.6361    7.6458 H     2058  UNL2058     0.1146
   8232 H          26.2498    7.0764    7.5974 H     2058  UNL2058     0.1146
   8233 N          26.3742    7.9465   10.4017 N.3   2059  UNL2059    -0.3437
   8234 H          27.3364    8.2371   10.2343 H     2059  UNL2059     0.1146
   8235 H          25.7871    8.6361    9.9345 H     2059  UNL2059     0.1146
   8236 H          26.2498    7.0764    9.8861 H     2059  UNL2059     0.1146
   8237 N          26.2076    7.8537   12.2604 N.3   2060  UNL2060    -0.3437
   8238 H          26.3353    7.4705   13.1959 H     2060  UNL2060     0.1146
   8239 H          26.1125    8.8612   12.3801 H     2060  UNL2060     0.1146
   8240 H          27.0921    7.7108   11.7751 H     2060  UNL2060     0.1146
   8241 N          26.2076    7.8537   14.5491 N.3   2061  UNL2061    -0.3437
   8242 H          26.3353    7.4705   15.4846 H     2061  UNL2061     0.1146
   8243 H          26.1125    8.8612   14.6688 H     2061  UNL2061     0.1146
   8244 H          27.0921    7.7108   14.0639 H     2061  UNL2061     0.1146
   8245 N          26.2440    8.1686   17.0913 N.3   2062  UNL2062    -0.3437
   8246 H          25.8023    7.2968   16.8028 H     2062  UNL2062     0.1146
   8247 H          26.9696    7.9087   17.7579 H     2062  UNL2062     0.1146
   8248 H          26.7315    8.5220   16.2692 H     2062  UNL2062     0.1146
   8249 N          26.2440    8.1686   19.3800 N.3   2063  UNL2063    -0.3437
   8250 H          25.8023    7.2968   19.0915 H     2063  UNL2063     0.1146
   8251 H          26.9696    7.9087   20.0466 H     2063  UNL2063     0.1146
   8252 H          26.7315    8.5220   18.5579 H     2063  UNL2063     0.1146
   8253 N          26.2440    8.1686   21.6687 N.3   2064  UNL2064    -0.3437
   8254 H          25.8023    7.2968   21.3802 H     2064  UNL2064     0.1146
   8255 H          26.9696    7.9087   22.3353 H     2064  UNL2064     0.1146
   8256 H          26.7315    8.5220   20.8466 H     2064  UNL2064     0.1146
   8257 N          26.2440    8.1686   23.9575 N.3   2065  UNL2065    -0.3437
   8258 H          25.8023    7.2968   23.6690 H     2065  UNL2065     0.1146
   8259 H          26.9696    7.9087   24.6241 H     2065  UNL2065     0.1146
   8260 H          26.7315    8.5220   23.1354 H     2065  UNL2065     0.1146
   8261 N          26.2440    7.9465   25.9128 N.3   2066  UNL2066    -0.3437
   8262 H          25.8023    8.2371   26.7840 H     2066  UNL2066     0.1146
   8263 H          26.9696    8.6361   25.7221 H     2066  UNL2066     0.1146
   8264 H          26.7315    7.0764   26.1217 H     2066  UNL2066     0.1146
   8265 N          26.1602    7.9635   29.3203 N.3   2067  UNL2067    -0.3437
   8266 H          26.2979    7.3700   30.1370 H     2067  UNL2067     0.1146
   8267 H          26.4393    8.9015   29.6044 H     2067  UNL2067     0.1146
   8268 H          26.8500    7.6612   28.6338 H     2067  UNL2067     0.1146
   8269 N          26.2440   10.6125    1.0703 N.3   2068  UNL2068    -0.3437
   8270 H          25.8023    9.7407    0.7818 H     2068  UNL2068     0.1146
   8271 H          26.9696   10.3525    1.7369 H     2068  UNL2068     0.1146
   8272 H          26.7315   10.9658    0.2482 H     2068  UNL2068     0.1146
   8273 N          26.2076   10.2975    3.1055 N.3   2069  UNL2069    -0.3437
   8274 H          26.3353    9.9143    4.0410 H     2069  UNL2069     0.1146
   8275 H          26.1125   11.3050    3.2252 H     2069  UNL2069     0.1146
   8276 H          27.0921   10.1547    2.6203 H     2069  UNL2069     0.1146
   8277 N          26.2440   10.6125    5.6477 N.3   2070  UNL2070    -0.3437
   8278 H          25.8023    9.7407    5.3592 H     2070  UNL2070     0.1146
   8279 H          26.9696   10.3525    6.3143 H     2070  UNL2070     0.1146
   8280 H          26.7315   10.9658    4.8256 H     2070  UNL2070     0.1146
   8281 N          26.2440   10.6125    7.9365 N.3   2071  UNL2071    -0.3437
   8282 H          25.8023    9.7407    7.6479 H     2071  UNL2071     0.1146
   8283 H          26.9696   10.3525    8.6031 H     2071  UNL2071     0.1146
   8284 H          26.7315   10.9658    7.1144 H     2071  UNL2071     0.1146
   8285 N          26.2440   10.6125   10.2252 N.3   2072  UNL2072    -0.3437
   8286 H          25.8023    9.7407    9.9367 H     2072  UNL2072     0.1146
   8287 H          26.9696   10.3525   10.8918 H     2072  UNL2072     0.1146
   8288 H          26.7315   10.9658    9.4031 H     2072  UNL2072     0.1146
   8289 N          26.2440   10.6125   12.5139 N.3   2073  UNL2073    -0.3437
   8290 H          25.8023    9.7407   12.2254 H     2073  UNL2073     0.1146
   8291 H          26.9696   10.3525   13.1805 H     2073  UNL2073     0.1146
   8292 H          26.7315   10.9658   11.6918 H     2073  UNL2073     0.1146
   8293 N          26.2440   10.6125   14.8026 N.3   2074  UNL2074    -0.3437
   8294 H          25.8023    9.7407   14.5141 H     2074  UNL2074     0.1146
   8295 H          26.9696   10.3525   15.4692 H     2074  UNL2074     0.1146
   8296 H          26.7315   10.9658   13.9805 H     2074  UNL2074     0.1146
   8297 N          26.2440   10.6125   17.0913 N.3   2075  UNL2075    -0.3437
   8298 H          25.8023    9.7407   16.8028 H     2075  UNL2075     0.1146
   8299 H          26.9696   10.3525   17.7579 H     2075  UNL2075     0.1146
   8300 H          26.7315   10.9658   16.2692 H     2075  UNL2075     0.1146
   8301 N          26.2440   10.6125   19.3800 N.3   2076  UNL2076    -0.3437
   8302 H          25.8023    9.7407   19.0915 H     2076  UNL2076     0.1146
   8303 H          26.9696   10.3525   20.0466 H     2076  UNL2076     0.1146
   8304 H          26.7315   10.9658   18.5579 H     2076  UNL2076     0.1146
   8305 N          26.2440   10.3903   21.3354 N.3   2077  UNL2077    -0.3437
   8306 H          25.8023   10.6809   22.2065 H     2077  UNL2077     0.1146
   8307 H          26.9696   11.0799   21.1447 H     2077  UNL2077     0.1146
   8308 H          26.7315    9.5202   21.5443 H     2077  UNL2077     0.1146
   8309 N          26.2076   10.2975   23.7040 N.3   2078  UNL2078    -0.3437
   8310 H          26.3353    9.9143   24.6395 H     2078  UNL2078     0.1146
   8311 H          26.1125   11.3050   23.8237 H     2078  UNL2078     0.1146
   8312 H          27.0921   10.1547   23.2187 H     2078  UNL2078     0.1146
   8313 N          26.2440   10.6125   26.2462 N.3   2079  UNL2079    -0.3437
   8314 H          25.8023    9.7407   25.9577 H     2079  UNL2079     0.1146
   8315 H          26.9696   10.3525   26.9128 H     2079  UNL2079     0.1146
   8316 H          26.7315   10.9658   25.4241 H     2079  UNL2079     0.1146
   8317 N          26.1602   10.4074   29.3203 N.3   2080  UNL2080    -0.3437
   8318 H          26.2979    9.8138   30.1370 H     2080  UNL2080     0.1146
   8319 H          26.4393   11.3453   29.6044 H     2080  UNL2080     0.1146
   8320 H          26.8500   10.1050   28.6338 H     2080  UNL2080     0.1146
   8321 N          26.1770   12.9513    1.1394 N.3   2081  UNL2081    -0.3437
   8322 H          26.6277   13.6593    1.7172 H     2081  UNL2081     0.1146
   8323 H          26.8484   12.7146    0.4103 H     2081  UNL2081     0.1146
   8324 H          26.0944   12.1215    1.7252 H     2081  UNL2081     0.1146
   8325 N          26.2440   13.0563    3.6477 N.3   2082  UNL2082    -0.3437
   8326 H          25.8023   12.1845    3.3592 H     2082  UNL2082     0.1146
   8327 H          26.9696   12.7963    4.3143 H     2082  UNL2082     0.1146
   8328 H          26.7315   13.4096    2.8256 H     2082  UNL2082     0.1146
   8329 N          26.2440   13.0563    5.9365 N.3   2083  UNL2083    -0.3437
   8330 H          25.8023   12.1845    5.6479 H     2083  UNL2083     0.1146
   8331 H          26.9696   12.7963    6.6031 H     2083  UNL2083     0.1146
   8332 H          26.7315   13.4096    5.1144 H     2083  UNL2083     0.1146
   8333 N          26.2440   13.0563    8.2252 N.3   2084  UNL2084    -0.3437
   8334 H          25.8023   12.1845    7.9367 H     2084  UNL2084     0.1146
   8335 H          26.9696   12.7963    8.8918 H     2084  UNL2084     0.1146
   8336 H          26.7315   13.4096    7.4031 H     2084  UNL2084     0.1146
   8337 N          26.1602   12.8512   12.2993 N.3   2085  UNL2085    -0.3437
   8338 H          26.2979   12.2576   13.1160 H     2085  UNL2085     0.1146
   8339 H          26.4393   13.7891   12.5834 H     2085  UNL2085     0.1146
   8340 H          26.8500   12.5488   11.6128 H     2085  UNL2085     0.1146
   8341 N          26.4506   13.0496   14.4638 N.3   2086  UNL2086    -0.3437
   8342 H          25.8291   13.3724   15.2040 H     2086  UNL2086     0.1146
   8343 H          27.3568   12.8972   14.9044 H     2086  UNL2086     0.1146
   8344 H          26.1109   12.1275   14.1941 H     2086  UNL2086     0.1146
   8345 N          26.4506   13.0496   16.7525 N.3   2087  UNL2087    -0.3437
   8346 H          25.8291   13.3724   17.4928 H     2087  UNL2087     0.1146
   8347 H          27.3568   12.8972   17.1931 H     2087  UNL2087     0.1146
   8348 H          26.1109   12.1275   16.4829 H     2087  UNL2087     0.1146
   8349 N          26.4506   13.0496   19.0413 N.3   2088  UNL2088    -0.3437
   8350 H          25.8291   13.3724   19.7815 H     2088  UNL2088     0.1146
   8351 H          27.3568   12.8972   19.4818 H     2088  UNL2088     0.1146
   8352 H          26.1109   12.1275   18.7716 H     2088  UNL2088     0.1146
   8353 N          26.2440   12.8341   21.3354 N.3   2089  UNL2089    -0.3437
   8354 H          25.8023   13.1247   22.2065 H     2089  UNL2089     0.1146
   8355 H          26.9696   13.5237   21.1447 H     2089  UNL2089     0.1146
   8356 H          26.7315   11.9640   21.5443 H     2089  UNL2089     0.1146
   8357 N          26.4506   13.0496   23.6187 N.3   2090  UNL2090    -0.3437
   8358 H          25.8291   13.3724   24.3589 H     2090  UNL2090     0.1146
   8359 H          27.3568   12.8972   24.0592 H     2090  UNL2090     0.1146
   8360 H          26.1109   12.1275   23.3490 H     2090  UNL2090     0.1146
   8361 N          26.4506   13.0496   25.9074 N.3   2091  UNL2091    -0.3437
   8362 H          25.8291   13.3724   26.6476 H     2091  UNL2091     0.1146
   8363 H          27.3568   12.8972   26.3480 H     2091  UNL2091     0.1146
   8364 H          26.1109   12.1275   25.6377 H     2091  UNL2091     0.1146
   8365 N          26.1602   12.8512   29.3203 N.3   2092  UNL2092    -0.3437
   8366 H          26.2979   12.2576   30.1370 H     2092  UNL2092     0.1146
   8367 H          26.4393   13.7891   29.6044 H     2092  UNL2092     0.1146
   8368 H          26.8500   12.5488   28.6338 H     2092  UNL2092     0.1146
   8369 N          26.2440   15.5001    1.0703 N.3   2093  UNL2093    -0.3437
   8370 H          25.8023   14.6283    0.7818 H     2093  UNL2093     0.1146
   8371 H          26.9696   15.2401    1.7369 H     2093  UNL2093     0.1146
   8372 H          26.7315   15.8534    0.2482 H     2093  UNL2093     0.1146
   8373 N          26.2440   15.5001    3.3590 N.3   2094  UNL2094    -0.3437
   8374 H          25.8023   14.6283    3.0705 H     2094  UNL2094     0.1146
   8375 H          26.9696   15.2401    4.0256 H     2094  UNL2094     0.1146
   8376 H          26.7315   15.8534    2.5369 H     2094  UNL2094     0.1146
   8377 N          26.2440   15.5001    5.6477 N.3   2095  UNL2095    -0.3437
   8378 H          25.8023   14.6283    5.3592 H     2095  UNL2095     0.1146
   8379 H          26.9696   15.2401    6.3143 H     2095  UNL2095     0.1146
   8380 H          26.7315   15.8534    4.8256 H     2095  UNL2095     0.1146
   8381 N          26.2440   15.5001    7.9365 N.3   2096  UNL2096    -0.3437
   8382 H          25.8023   14.6283    7.6479 H     2096  UNL2096     0.1146
   8383 H          26.9696   15.2401    8.6031 H     2096  UNL2096     0.1146
   8384 H          26.7315   15.8534    7.1144 H     2096  UNL2096     0.1146
   8385 N          26.2440   15.5001   10.2252 N.3   2097  UNL2097    -0.3437
   8386 H          25.8023   14.6283    9.9367 H     2097  UNL2097     0.1146
   8387 H          26.9696   15.2401   10.8918 H     2097  UNL2097     0.1146
   8388 H          26.7315   15.8534    9.4031 H     2097  UNL2097     0.1146
   8389 N          26.2440   15.5001   12.5139 N.3   2098  UNL2098    -0.3437
   8390 H          25.8023   14.6283   12.2254 H     2098  UNL2098     0.1146
   8391 H          26.9696   15.2401   13.1805 H     2098  UNL2098     0.1146
   8392 H          26.7315   15.8534   11.6918 H     2098  UNL2098     0.1146
   8393 N          26.2440   15.2779   14.4693 N.3   2099  UNL2099    -0.3437
   8394 H          25.8023   15.5685   15.3404 H     2099  UNL2099     0.1146
   8395 H          26.9696   15.9675   14.2786 H     2099  UNL2099     0.1146
   8396 H          26.7315   14.4078   14.6782 H     2099  UNL2099     0.1146
   8397 N          26.2076   15.1851   16.8378 N.3   2100  UNL2100    -0.3437
   8398 H          26.3353   14.8019   17.7733 H     2100  UNL2100     0.1146
   8399 H          26.1125   16.1926   16.9575 H     2100  UNL2100     0.1146
   8400 H          27.0921   15.0423   16.3526 H     2100  UNL2100     0.1146
   8401 N          26.2440   15.1438   19.4241 N.3   2101  UNL2101    -0.3437
   8402 H          25.8023   15.6678   18.6700 H     2101  UNL2101     0.1146
   8403 H          26.9696   14.5784   18.9858 H     2101  UNL2101     0.1146
   8404 H          26.7315   15.8319   19.9962 H     2101  UNL2101     0.1146
   8405 N          26.2076   15.1851   21.4152 N.3   2102  UNL2102    -0.3437
   8406 H          26.3353   14.8019   22.3508 H     2102  UNL2102     0.1146
   8407 H          26.1125   16.1926   21.5350 H     2102  UNL2102     0.1146
   8408 H          27.0921   15.0423   20.9300 H     2102  UNL2102     0.1146
   8409 N          26.2440   15.5001   23.9575 N.3   2103  UNL2103    -0.3437
   8410 H          25.8023   14.6283   23.6690 H     2103  UNL2103     0.1146
   8411 H          26.9696   15.2401   24.6241 H     2103  UNL2103     0.1146
   8412 H          26.7315   15.8534   23.1354 H     2103  UNL2103     0.1146
   8413 N          26.2440   15.5001   26.2462 N.3   2104  UNL2104    -0.3437
   8414 H          25.8023   14.6283   25.9577 H     2104  UNL2104     0.1146
   8415 H          26.9696   15.2401   26.9128 H     2104  UNL2104     0.1146
   8416 H          26.7315   15.8534   25.4241 H     2104  UNL2104     0.1146
   8417 N          26.1602   15.2950   29.3203 N.3   2105  UNL2105    -0.3437
   8418 H          26.2979   14.7014   30.1370 H     2105  UNL2105     0.1146
   8419 H          26.4393   16.2329   29.6044 H     2105  UNL2105     0.1146
   8420 H          26.8500   14.9926   28.6338 H     2105  UNL2105     0.1146
   8421 N          26.2440   17.7217    0.7370 N.3   2106  UNL2106    -0.3437
   8422 H          25.8023   18.0123    1.6081 H     2106  UNL2106     0.1146
   8423 H          26.9696   18.4114    0.5463 H     2106  UNL2106     0.1146
   8424 H          26.7315   16.8517    0.9459 H     2106  UNL2106     0.1146
   8425 N          26.2440   17.7217    3.0257 N.3   2107  UNL2107    -0.3437
   8426 H          25.8023   18.0123    3.8968 H     2107  UNL2107     0.1146
   8427 H          26.9696   18.4114    2.8350 H     2107  UNL2107     0.1146
   8428 H          26.7315   16.8517    3.2346 H     2107  UNL2107     0.1146
   8429 N          26.2440   17.7217    5.3144 N.3   2108  UNL2108    -0.3437
   8430 H          25.8023   18.0123    6.1855 H     2108  UNL2108     0.1146
   8431 H          26.9696   18.4114    5.1237 H     2108  UNL2108     0.1146
   8432 H          26.7315   16.8517    5.5233 H     2108  UNL2108     0.1146
   8433 N          26.2440   17.7217    7.6031 N.3   2109  UNL2109    -0.3437
   8434 H          25.8023   18.0123    8.4742 H     2109  UNL2109     0.1146
   8435 H          26.9696   18.4114    7.4124 H     2109  UNL2109     0.1146
   8436 H          26.7315   16.8517    7.8120 H     2109  UNL2109     0.1146
   8437 N          26.2440   17.7217    9.8918 N.3   2110  UNL2110    -0.3437
   8438 H          25.8023   18.0123   10.7629 H     2110  UNL2110     0.1146
   8439 H          26.9696   18.4114    9.7011 H     2110  UNL2110     0.1146
   8440 H          26.7315   16.8517   10.1007 H     2110  UNL2110     0.1146
   8441 N          26.2440   17.7217   12.1806 N.3   2111  UNL2111    -0.3437
   8442 H          25.8023   18.0123   13.0517 H     2111  UNL2111     0.1146
   8443 H          26.9696   18.4114   11.9899 H     2111  UNL2111     0.1146
   8444 H          26.7315   16.8517   12.3895 H     2111  UNL2111     0.1146
   8445 N          26.2440   17.5876   14.8467 N.3   2112  UNL2112    -0.3437
   8446 H          25.8023   18.1116   14.0926 H     2112  UNL2112     0.1146
   8447 H          26.9696   17.0222   14.4084 H     2112  UNL2112     0.1146
   8448 H          26.7315   18.2757   15.4188 H     2112  UNL2112     0.1146
   8449 N          26.2440   17.7217   16.7580 N.3   2113  UNL2113    -0.3437
   8450 H          25.8023   18.0123   17.6291 H     2113  UNL2113     0.1146
   8451 H          26.9696   18.4114   16.5673 H     2113  UNL2113     0.1146
   8452 H          26.7315   16.8517   16.9669 H     2113  UNL2113     0.1146
   8453 N          26.2440   17.7217   19.0467 N.3   2114  UNL2114    -0.3437
   8454 H          25.8023   18.0123   19.9178 H     2114  UNL2114     0.1146
   8455 H          26.9696   18.4114   18.8560 H     2114  UNL2114     0.1146
   8456 H          26.7315   16.8517   19.2556 H     2114  UNL2114     0.1146
   8457 N          26.2440   17.7217   21.3354 N.3   2115  UNL2115    -0.3437
   8458 H          25.8023   18.0123   22.2065 H     2115  UNL2115     0.1146
   8459 H          26.9696   18.4114   21.1447 H     2115  UNL2115     0.1146
   8460 H          26.7315   16.8517   21.5443 H     2115  UNL2115     0.1146
   8461 N          26.2440   17.7217   23.6241 N.3   2116  UNL2116    -0.3437
   8462 H          25.8023   18.0123   24.4952 H     2116  UNL2116     0.1146
   8463 H          26.9696   18.4114   23.4334 H     2116  UNL2116     0.1146
   8464 H          26.7315   16.8517   23.8330 H     2116  UNL2116     0.1146
   8465 N          26.2440   17.7217   25.9128 N.3   2117  UNL2117    -0.3437
   8466 H          25.8023   18.0123   26.7840 H     2117  UNL2117     0.1146
   8467 H          26.9696   18.4114   25.7221 H     2117  UNL2117     0.1146
   8468 H          26.7315   16.8517   26.1217 H     2117  UNL2117     0.1146
   8469 N          26.1602   17.7388   29.3203 N.3   2118  UNL2118    -0.3437
   8470 H          26.2979   17.1452   30.1370 H     2118  UNL2118     0.1146
   8471 H          26.4393   18.6767   29.6044 H     2118  UNL2118     0.1146
   8472 H          26.8500   17.4364   28.6338 H     2118  UNL2118     0.1146
   8473 N          26.2440   20.3877    1.0703 N.3   2119  UNL2119    -0.3437
   8474 H          25.8023   19.5159    0.7818 H     2119  UNL2119     0.1146
   8475 H          26.9696   20.1278    1.7369 H     2119  UNL2119     0.1146
   8476 H          26.7315   20.7410    0.2482 H     2119  UNL2119     0.1146
   8477 N          26.2076   20.0727    3.1055 N.3   2120  UNL2120    -0.3437
   8478 H          26.3353   19.6895    4.0410 H     2120  UNL2120     0.1146
   8479 H          26.1125   21.0802    3.2252 H     2120  UNL2120     0.1146
   8480 H          27.0921   19.9299    2.6203 H     2120  UNL2120     0.1146
   8481 N          26.4506   20.3810    5.3090 N.3   2121  UNL2121    -0.3437
   8482 H          25.8291   20.7038    6.0492 H     2121  UNL2121     0.1146
   8483 H          27.3568   20.2286    5.7495 H     2121  UNL2121     0.1146
   8484 H          26.1109   19.4589    5.0393 H     2121  UNL2121     0.1146
   8485 N          26.2076   20.0727    7.6830 N.3   2122  UNL2122    -0.3437
   8486 H          26.3353   19.6895    8.6185 H     2122  UNL2122     0.1146
   8487 H          26.1125   21.0802    7.8027 H     2122  UNL2122     0.1146
   8488 H          27.0921   19.9299    7.1977 H     2122  UNL2122     0.1146
   8489 N          26.2076   20.0727    9.9717 N.3   2123  UNL2123    -0.3437
   8490 H          26.3353   19.6895   10.9072 H     2123  UNL2123     0.1146
   8491 H          26.1125   21.0802   10.0914 H     2123  UNL2123     0.1146
   8492 H          27.0921   19.9299    9.4864 H     2123  UNL2123     0.1146
   8493 N          26.2440   20.0314   12.5580 N.3   2124  UNL2124    -0.3437
   8494 H          25.8023   20.5554   11.8039 H     2124  UNL2124     0.1146
   8495 H          26.9696   19.4660   12.1196 H     2124  UNL2124     0.1146
   8496 H          26.7315   20.7195   13.1301 H     2124  UNL2124     0.1146
   8497 N          26.3742   20.1656   14.9792 N.3   2125  UNL2125    -0.3437
   8498 H          27.3364   20.4562   14.8117 H     2125  UNL2125     0.1146
   8499 H          25.7871   20.8552   14.5120 H     2125  UNL2125     0.1146
   8500 H          26.2498   19.2955   14.4636 H     2125  UNL2125     0.1146
   8501 N          26.2440   20.1656   16.7580 N.3   2126  UNL2126    -0.3437
   8502 H          25.8023   20.4562   17.6291 H     2126  UNL2126     0.1146
   8503 H          26.9696   20.8552   16.5673 H     2126  UNL2126     0.1146
   8504 H          26.7315   19.2955   16.9669 H     2126  UNL2126     0.1146
   8505 N          26.2440   20.0314   19.4241 N.3   2127  UNL2127    -0.3437
   8506 H          25.8023   20.5554   18.6700 H     2127  UNL2127     0.1146
   8507 H          26.9696   19.4660   18.9858 H     2127  UNL2127     0.1146
   8508 H          26.7315   20.7195   19.9962 H     2127  UNL2127     0.1146
   8509 N          26.2440   20.3877   21.6687 N.3   2128  UNL2128    -0.3437
   8510 H          25.8023   19.5159   21.3802 H     2128  UNL2128     0.1146
   8511 H          26.9696   20.1278   22.3353 H     2128  UNL2128     0.1146
   8512 H          26.7315   20.7410   20.8466 H     2128  UNL2128     0.1146
   8513 N          26.2440   20.3877   23.9575 N.3   2129  UNL2129    -0.3437
   8514 H          25.8023   19.5159   23.6690 H     2129  UNL2129     0.1146
   8515 H          26.9696   20.1278   24.6241 H     2129  UNL2129     0.1146
   8516 H          26.7315   20.7410   23.1354 H     2129  UNL2129     0.1146
   8517 N          26.2440   20.3877   26.2462 N.3   2130  UNL2130    -0.3437
   8518 H          25.8023   19.5159   25.9577 H     2130  UNL2130     0.1146
   8519 H          26.9696   20.1278   26.9128 H     2130  UNL2130     0.1146
   8520 H          26.7315   20.7410   25.4241 H     2130  UNL2130     0.1146
   8521 N          26.1602   20.1826   29.3203 N.3   2131  UNL2131    -0.3437
   8522 H          26.2979   19.5890   30.1370 H     2131  UNL2131     0.1146
   8523 H          26.4393   21.1205   29.6044 H     2131  UNL2131     0.1146
   8524 H          26.8500   19.8802   28.6338 H     2131  UNL2131     0.1146
   8525 N          26.4506   22.8248    0.7315 N.3   2132  UNL2132    -0.3437
   8526 H          25.8291   23.1476    1.4717 H     2132  UNL2132     0.1146
   8527 H          27.3568   22.6724    1.1721 H     2132  UNL2132     0.1146
   8528 H          26.1109   21.9027    0.4619 H     2132  UNL2132     0.1146
   8529 N          26.4506   22.8248    3.0203 N.3   2133  UNL2133    -0.3437
   8530 H          25.8291   23.1476    3.7605 H     2133  UNL2133     0.1146
   8531 H          27.3568   22.6724    3.4608 H     2133  UNL2133     0.1146
   8532 H          26.1109   21.9027    2.7506 H     2133  UNL2133     0.1146
   8533 N          26.4506   22.8248    5.3090 N.3   2134  UNL2134    -0.3437
   8534 H          25.8291   23.1476    6.0492 H     2134  UNL2134     0.1146
   8535 H          27.3568   22.6724    5.7495 H     2134  UNL2134     0.1146
   8536 H          26.1109   21.9027    5.0393 H     2134  UNL2134     0.1146
   8537 N          26.4506   22.8248    7.5977 N.3   2135  UNL2135    -0.3437
   8538 H          25.8291   23.1476    8.3379 H     2135  UNL2135     0.1146
   8539 H          27.3568   22.6724    8.0382 H     2135  UNL2135     0.1146
   8540 H          26.1109   21.9027    7.3280 H     2135  UNL2135     0.1146
   8541 N          26.4506   22.8248    9.8864 N.3   2136  UNL2136    -0.3437
   8542 H          25.8291   23.1476   10.6266 H     2136  UNL2136     0.1146
   8543 H          27.3568   22.6724   10.3270 H     2136  UNL2136     0.1146
   8544 H          26.1109   21.9027    9.6167 H     2136  UNL2136     0.1146
   8545 N          26.2440   22.6094   12.1806 N.3   2137  UNL2137    -0.3437
   8546 H          25.8023   22.9000   13.0517 H     2137  UNL2137     0.1146
   8547 H          26.9696   23.2990   11.9899 H     2137  UNL2137     0.1146
   8548 H          26.7315   21.7393   12.3895 H     2137  UNL2137     0.1146
   8549 N          26.2440   22.4752   14.8467 N.3   2138  UNL2138    -0.3437
   8550 H          25.8023   22.9992   14.0926 H     2138  UNL2138     0.1146
   8551 H          26.9696   21.9098   14.4084 H     2138  UNL2138     0.1146
   8552 H          26.7315   23.1633   15.4188 H     2138  UNL2138     0.1146
   8553 N          26.3742   22.6094   17.2679 N.3   2139  UNL2139    -0.3437
   8554 H          27.3364   22.9000   17.1004 H     2139  UNL2139     0.1146
   8555 H          25.7871   23.2990   16.8007 H     2139  UNL2139     0.1146
   8556 H          26.2498   21.7393   16.7523 H     2139  UNL2139     0.1146
   8557 N          26.2440   22.8315   19.3800 N.3   2140  UNL2140    -0.3437
   8558 H          25.8023   21.9597   19.0915 H     2140  UNL2140     0.1146
   8559 H          26.9696   22.5716   20.0466 H     2140  UNL2140     0.1146
   8560 H          26.7315   23.1848   18.5579 H     2140  UNL2140     0.1146
   8561 N          26.2076   22.5165   21.4152 N.3   2141  UNL2141    -0.3437
   8562 H          26.3353   22.1333   22.3508 H     2141  UNL2141     0.1146
   8563 H          26.1125   23.5240   21.5350 H     2141  UNL2141     0.1146
   8564 H          27.0921   22.3737   20.9300 H     2141  UNL2141     0.1146
   8565 N          26.2440   22.4752   24.0016 N.3   2142  UNL2142    -0.3437
   8566 H          25.8023   22.9992   23.2474 H     2142  UNL2142     0.1146
   8567 H          26.9696   21.9098   23.5632 H     2142  UNL2142     0.1146
   8568 H          26.7315   23.1633   24.5736 H     2142  UNL2142     0.1146
   8569 N          26.2440   22.8315   26.2462 N.3   2143  UNL2143    -0.3437
   8570 H          25.8023   21.9597   25.9577 H     2143  UNL2143     0.1146
   8571 H          26.9696   22.5716   26.9128 H     2143  UNL2143     0.1146
   8572 H          26.7315   23.1848   25.4241 H     2143  UNL2143     0.1146
   8573 N          26.1602   22.6264   29.3203 N.3   2144  UNL2144    -0.3437
   8574 H          26.2979   22.0328   30.1370 H     2144  UNL2144     0.1146
   8575 H          26.4393   23.5643   29.6044 H     2144  UNL2144     0.1146
   8576 H          26.8500   22.3240   28.6338 H     2144  UNL2144     0.1146
   8577 N          26.2440   25.2753    1.0703 N.3   2145  UNL2145    -0.3437
   8578 H          25.8023   24.4035    0.7818 H     2145  UNL2145     0.1146
   8579 H          26.9696   25.0154    1.7369 H     2145  UNL2145     0.1146
   8580 H          26.7315   25.6286    0.2482 H     2145  UNL2145     0.1146
   8581 N          26.2440   25.2753    3.3590 N.3   2146  UNL2146    -0.3437
   8582 H          25.8023   24.4035    3.0705 H     2146  UNL2146     0.1146
   8583 H          26.9696   25.0154    4.0256 H     2146  UNL2146     0.1146
   8584 H          26.7315   25.6286    2.5369 H     2146  UNL2146     0.1146
   8585 N          26.2440   25.2753    5.6477 N.3   2147  UNL2147    -0.3437
   8586 H          25.8023   24.4035    5.3592 H     2147  UNL2147     0.1146
   8587 H          26.9696   25.0154    6.3143 H     2147  UNL2147     0.1146
   8588 H          26.7315   25.6286    4.8256 H     2147  UNL2147     0.1146
   8589 N          26.2440   25.2753    7.9365 N.3   2148  UNL2148    -0.3437
   8590 H          25.8023   24.4035    7.6479 H     2148  UNL2148     0.1146
   8591 H          26.9696   25.0154    8.6031 H     2148  UNL2148     0.1146
   8592 H          26.7315   25.6286    7.1144 H     2148  UNL2148     0.1146
   8593 N          26.2440   25.2753   10.2252 N.3   2149  UNL2149    -0.3437
   8594 H          25.8023   24.4035    9.9367 H     2149  UNL2149     0.1146
   8595 H          26.9696   25.0154   10.8918 H     2149  UNL2149     0.1146
   8596 H          26.7315   25.6286    9.4031 H     2149  UNL2149     0.1146
   8597 N          26.2440   25.2753   12.5139 N.3   2150  UNL2150    -0.3437
   8598 H          25.8023   24.4035   12.2254 H     2150  UNL2150     0.1146
   8599 H          26.9696   25.0154   13.1805 H     2150  UNL2150     0.1146
   8600 H          26.7315   25.6286   11.6918 H     2150  UNL2150     0.1146
   8601 N          26.2440   25.2753   14.8026 N.3   2151  UNL2151    -0.3437
   8602 H          25.8023   24.4035   14.5141 H     2151  UNL2151     0.1146
   8603 H          26.9696   25.0154   15.4692 H     2151  UNL2151     0.1146
   8604 H          26.7315   25.6286   13.9805 H     2151  UNL2151     0.1146
   8605 N          26.2440   25.2753   17.0913 N.3   2152  UNL2152    -0.3437
   8606 H          25.8023   24.4035   16.8028 H     2152  UNL2152     0.1146
   8607 H          26.9696   25.0154   17.7579 H     2152  UNL2152     0.1146
   8608 H          26.7315   25.6286   16.2692 H     2152  UNL2152     0.1146
   8609 N          26.4696   25.1541   18.9846 N.3   2153  UNL2153    -0.3437
   8610 H          25.5597   24.7401   19.1826 H     2153  UNL2153     0.1146
   8611 H          26.5567   25.9536   19.6104 H     2153  UNL2153     0.1146
   8612 H          27.1614   24.4750   19.2986 H     2153  UNL2153     0.1146
   8613 N          26.2440   25.0532   21.3354 N.3   2154  UNL2154    -0.3437
   8614 H          25.8023   25.3438   22.2065 H     2154  UNL2154     0.1146
   8615 H          26.9696   25.7428   21.1447 H     2154  UNL2154     0.1146
   8616 H          26.7315   24.1831   21.5443 H     2154  UNL2154     0.1146
   8617 N          26.4506   25.2686   23.6187 N.3   2155  UNL2155    -0.3437
   8618 H          25.8291   25.5914   24.3589 H     2155  UNL2155     0.1146
   8619 H          27.3568   25.1162   24.0592 H     2155  UNL2155     0.1146
   8620 H          26.1109   24.3465   23.3490 H     2155  UNL2155     0.1146
   8621 N          26.2076   24.9603   25.9927 N.3   2156  UNL2156    -0.3437
   8622 H          26.3353   24.5771   26.9282 H     2156  UNL2156     0.1146
   8623 H          26.1125   25.9678   26.1124 H     2156  UNL2156     0.1146
   8624 H          27.0921   24.8175   25.5074 H     2156  UNL2156     0.1146
   8625 N          26.1602   25.0702   29.3203 N.3   2157  UNL2157    -0.3437
   8626 H          26.2979   24.4766   30.1370 H     2157  UNL2157     0.1146
   8627 H          26.4393   26.0081   29.6044 H     2157  UNL2157     0.1146
   8628 H          26.8500   24.7678   28.6338 H     2157  UNL2157     0.1146
   8629 N          26.2440   27.4970    0.7370 N.3   2158  UNL2158    -0.3437
   8630 H          25.8023   27.7876    1.6081 H     2158  UNL2158     0.1146
   8631 H          26.9696   28.1866    0.5463 H     2158  UNL2158     0.1146
   8632 H          26.7315   26.6269    0.9459 H     2158  UNL2158     0.1146
   8633 N          26.4506   27.7124    3.0203 N.3   2159  UNL2159    -0.3437
   8634 H          25.8291   28.0352    3.7605 H     2159  UNL2159     0.1146
   8635 H          27.3568   27.5600    3.4608 H     2159  UNL2159     0.1146
   8636 H          26.1109   26.7903    2.7506 H     2159  UNL2159     0.1146
   8637 N          26.2440   27.4970    5.3144 N.3   2160  UNL2160    -0.3437
   8638 H          25.8023   27.7876    6.1855 H     2160  UNL2160     0.1146
   8639 H          26.9696   28.1866    5.1237 H     2160  UNL2160     0.1146
   8640 H          26.7315   26.6269    5.5233 H     2160  UNL2160     0.1146
   8641 N          26.2440   27.4970    7.6031 N.3   2161  UNL2161    -0.3437
   8642 H          25.8023   27.7876    8.4742 H     2161  UNL2161     0.1146
   8643 H          26.9696   28.1866    7.4124 H     2161  UNL2161     0.1146
   8644 H          26.7315   26.6269    7.8120 H     2161  UNL2161     0.1146
   8645 N          26.2440   27.4970    9.8918 N.3   2162  UNL2162    -0.3437
   8646 H          25.8023   27.7876   10.7629 H     2162  UNL2162     0.1146
   8647 H          26.9696   28.1866    9.7011 H     2162  UNL2162     0.1146
   8648 H          26.7315   26.6269   10.1007 H     2162  UNL2162     0.1146
   8649 N          26.2440   27.4970   12.1806 N.3   2163  UNL2163    -0.3437
   8650 H          25.8023   27.7876   13.0517 H     2163  UNL2163     0.1146
   8651 H          26.9696   28.1866   11.9899 H     2163  UNL2163     0.1146
   8652 H          26.7315   26.6269   12.3895 H     2163  UNL2163     0.1146
   8653 N          26.2440   27.4970   14.4693 N.3   2164  UNL2164    -0.3437
   8654 H          25.8023   27.7876   15.3404 H     2164  UNL2164     0.1146
   8655 H          26.9696   28.1866   14.2786 H     2164  UNL2164     0.1146
   8656 H          26.7315   26.6269   14.6782 H     2164  UNL2164     0.1146
   8657 N          26.4506   27.7124   16.7525 N.3   2165  UNL2165    -0.3437
   8658 H          25.8291   28.0352   17.4928 H     2165  UNL2165     0.1146
   8659 H          27.3568   27.5600   17.1931 H     2165  UNL2165     0.1146
   8660 H          26.1109   26.7903   16.4829 H     2165  UNL2165     0.1146
   8661 N          26.4506   27.7124   19.0413 N.3   2166  UNL2166    -0.3437
   8662 H          25.8291   28.0352   19.7815 H     2166  UNL2166     0.1146
   8663 H          27.3568   27.5600   19.4818 H     2166  UNL2166     0.1146
   8664 H          26.1109   26.7903   18.7716 H     2166  UNL2166     0.1146
   8665 N          26.2440   27.4970   21.3354 N.3   2167  UNL2167    -0.3437
   8666 H          25.8023   27.7876   22.2065 H     2167  UNL2167     0.1146
   8667 H          26.9696   28.1866   21.1447 H     2167  UNL2167     0.1146
   8668 H          26.7315   26.6269   21.5443 H     2167  UNL2167     0.1146
   8669 N          26.2440   27.4970   23.6241 N.3   2168  UNL2168    -0.3437
   8670 H          25.8023   27.7876   24.4952 H     2168  UNL2168     0.1146
   8671 H          26.9696   28.1866   23.4334 H     2168  UNL2168     0.1146
   8672 H          26.7315   26.6269   23.8330 H     2168  UNL2168     0.1146
   8673 N          26.2440   27.4970   25.9128 N.3   2169  UNL2169    -0.3437
   8674 H          25.8023   27.7876   26.7840 H     2169  UNL2169     0.1146
   8675 H          26.9696   28.1866   25.7221 H     2169  UNL2169     0.1146
   8676 H          26.7315   26.6269   26.1217 H     2169  UNL2169     0.1146
   8677 N          26.1602   27.5140   29.3203 N.3   2170  UNL2170    -0.3437
   8678 H          26.2979   26.9204   30.1370 H     2170  UNL2170     0.1146
   8679 H          26.4393   28.4519   29.6044 H     2170  UNL2170     0.1146
   8680 H          26.8500   27.2116   28.6338 H     2170  UNL2170     0.1146
   8681 N          26.2440   30.9408    0.7370 N.3   2171  UNL2171    -0.3437
   8682 H          25.8023   31.2314    1.6081 H     2171  UNL2171     0.1146
   8683 H          26.9696   31.6304    0.5463 H     2171  UNL2171     0.1146
   8684 H          26.7315   30.0707    0.9459 H     2171  UNL2171     0.1146
   8685 N          26.2440   30.9408    3.0257 N.3   2172  UNL2172    -0.3437
   8686 H          25.8023   31.2314    3.8968 H     2172  UNL2172     0.1146
   8687 H          26.9696   31.6304    2.8350 H     2172  UNL2172     0.1146
   8688 H          26.7315   30.0707    3.2346 H     2172  UNL2172     0.1146
   8689 N          26.2440   30.9408    5.3144 N.3   2173  UNL2173    -0.3437
   8690 H          25.8023   31.2314    6.1855 H     2173  UNL2173     0.1146
   8691 H          26.9696   31.6304    5.1237 H     2173  UNL2173     0.1146
   8692 H          26.7315   30.0707    5.5233 H     2173  UNL2173     0.1146
   8693 N          26.4339   30.7107    7.6806 N.3   2174  UNL2174    -0.3437
   8694 H          25.4994   31.0854    7.8375 H     2174  UNL2174     0.1146
   8695 H          26.9477   31.4367    7.1833 H     2174  UNL2174     0.1146
   8696 H          26.8665   30.6405    8.6005 H     2174  UNL2174     0.1146
   8697 N          26.2440   30.9408    9.8918 N.3   2175  UNL2175    -0.3437
   8698 H          25.8023   31.2314   10.7629 H     2175  UNL2175     0.1146
   8699 H          26.9696   31.6304    9.7011 H     2175  UNL2175     0.1146
   8700 H          26.7315   30.0707   10.1007 H     2175  UNL2175     0.1146
   8701 N          26.2440   30.9408   12.1806 N.3   2176  UNL2176    -0.3437
   8702 H          25.8023   31.2314   13.0517 H     2176  UNL2176     0.1146
   8703 H          26.9696   31.6304   11.9899 H     2176  UNL2176     0.1146
   8704 H          26.7315   30.0707   12.3895 H     2176  UNL2176     0.1146
   8705 N          26.3742   29.9408   14.9792 N.3   2177  UNL2177    -0.3437
   8706 H          27.3364   30.2314   14.8117 H     2177  UNL2177     0.1146
   8707 H          25.7871   30.6304   14.5120 H     2177  UNL2177     0.1146
   8708 H          26.2498   29.0707   14.4636 H     2177  UNL2177     0.1146
   8709 N          26.2440   30.9408   16.7580 N.3   2178  UNL2178    -0.3437
   8710 H          25.8023   31.2314   17.6291 H     2178  UNL2178     0.1146
   8711 H          26.9696   31.6304   16.5673 H     2178  UNL2178     0.1146
   8712 H          26.7315   30.0707   16.9669 H     2178  UNL2178     0.1146
   8713 N          26.2440   30.9408   19.0467 N.3   2179  UNL2179    -0.3437
   8714 H          25.8023   31.2314   19.9178 H     2179  UNL2179     0.1146
   8715 H          26.9696   31.6304   18.8560 H     2179  UNL2179     0.1146
   8716 H          26.7315   30.0707   19.2556 H     2179  UNL2179     0.1146
   8717 N          26.2440   30.9408   21.3354 N.3   2180  UNL2180    -0.3437
   8718 H          25.8023   31.2314   22.2065 H     2180  UNL2180     0.1146
   8719 H          26.9696   31.6304   21.1447 H     2180  UNL2180     0.1146
   8720 H          26.7315   30.0707   21.5443 H     2180  UNL2180     0.1146
   8721 N          26.3742   29.9408   24.1340 N.3   2181  UNL2181    -0.3437
   8722 H          27.3364   30.2314   23.9666 H     2181  UNL2181     0.1146
   8723 H          25.7871   30.6304   23.6668 H     2181  UNL2181     0.1146
   8724 H          26.2498   29.0707   23.6184 H     2181  UNL2181     0.1146
   8725 N          26.2440   30.9408   25.9128 N.3   2182  UNL2182    -0.3437
   8726 H          25.8023   31.2314   26.7840 H     2182  UNL2182     0.1146
   8727 H          26.9696   31.6304   25.7221 H     2182  UNL2182     0.1146
   8728 H          26.7315   30.0707   26.1217 H     2182  UNL2182     0.1146
   8729 N          26.2440   29.9408   28.2016 N.3   2183  UNL2183    -0.3437
   8730 H          25.8023   30.2314   29.0727 H     2183  UNL2183     0.1146
   8731 H          26.9696   30.6304   28.0109 H     2183  UNL2183     0.1146
   8732 H          26.7315   29.0707   28.4105 H     2183  UNL2183     0.1146
   8733 N          28.4382    0.6151   -1.2630 N.3   2184  UNL2184    -0.3437
   8734 H          27.9965    0.9057   -0.3919 H     2184  UNL2184     0.1146
   8735 H          29.1638    1.3047   -1.4537 H     2184  UNL2184     0.1146
   8736 H          28.9257   -0.2550   -1.0541 H     2184  UNL2184     0.1146
   8737 N          28.4166    0.4424    1.2840 N.3   2185  UNL2185    -0.3437
   8738 H          28.4750    1.1007    2.0596 H     2185  UNL2185     0.1146
   8739 H          28.2917    1.0071    0.4450 H     2185  UNL2185     0.1146
   8740 H          29.3407    0.0204    1.2035 H     2185  UNL2185     0.1146
   8741 N          28.4382    0.8372    3.6477 N.3   2186  UNL2186    -0.3437
   8742 H          27.9965   -0.0346    3.3592 H     2186  UNL2186     0.1146
   8743 H          29.1638    0.5773    4.3143 H     2186  UNL2186     0.1146
   8744 H          28.9257    1.1906    2.8256 H     2186  UNL2186     0.1146
   8745 N          28.4382    0.8372    5.9365 N.3   2187  UNL2187    -0.3437
   8746 H          27.9965   -0.0346    5.6479 H     2187  UNL2187     0.1146
   8747 H          29.1638    0.5773    6.6031 H     2187  UNL2187     0.1146
   8748 H          28.9257    1.1906    5.1144 H     2187  UNL2187     0.1146
   8749 N          28.4382    0.8372    8.2252 N.3   2188  UNL2188    -0.3437
   8750 H          27.9965   -0.0346    7.9367 H     2188  UNL2188     0.1146
   8751 H          29.1638    0.5773    8.8918 H     2188  UNL2188     0.1146
   8752 H          28.9257    1.1906    7.4031 H     2188  UNL2188     0.1146
   8753 N          28.4382    0.4810   12.5580 N.3   2189  UNL2189    -0.3437
   8754 H          27.9965    1.0050   11.8039 H     2189  UNL2189     0.1146
   8755 H          29.1638   -0.0845   12.1196 H     2189  UNL2189     0.1146
   8756 H          28.9257    1.1691   13.1301 H     2189  UNL2189     0.1146
   8757 N          28.5683    0.6151   14.9792 N.3   2190  UNL2190    -0.3437
   8758 H          29.5305    0.9057   14.8117 H     2190  UNL2190     0.1146
   8759 H          27.9813    1.3047   14.5120 H     2190  UNL2190     0.1146
   8760 H          28.4439   -0.2550   14.4636 H     2190  UNL2190     0.1146
   8761 N          28.4382    0.8372   17.0913 N.3   2191  UNL2191    -0.3437
   8762 H          27.9965   -0.0346   16.8028 H     2191  UNL2191     0.1146
   8763 H          29.1638    0.5773   17.7579 H     2191  UNL2191     0.1146
   8764 H          28.9257    1.1906   16.2692 H     2191  UNL2191     0.1146
   8765 N          28.4382    0.6151   19.0467 N.3   2192  UNL2192    -0.3437
   8766 H          27.9965    0.9057   19.9178 H     2192  UNL2192     0.1146
   8767 H          29.1638    1.3047   18.8560 H     2192  UNL2192     0.1146
   8768 H          28.9257   -0.2550   19.2556 H     2192  UNL2192     0.1146
   8769 N          28.4382    0.6151   21.3354 N.3   2193  UNL2193    -0.3437
   8770 H          27.9965    0.9057   22.2065 H     2193  UNL2193     0.1146
   8771 H          29.1638    1.3047   21.1447 H     2193  UNL2193     0.1146
   8772 H          28.9257   -0.2550   21.5443 H     2193  UNL2193     0.1146
   8773 N          28.6447    0.8305   23.6187 N.3   2194  UNL2194    -0.3437
   8774 H          28.0233    1.1534   24.3589 H     2194  UNL2194     0.1146
   8775 H          29.5509    0.6782   24.0592 H     2194  UNL2194     0.1146
   8776 H          28.3051   -0.0916   23.3490 H     2194  UNL2194     0.1146
   8777 N          28.3544    0.6321   29.3203 N.3   2195  UNL2195    -0.3437
   8778 H          28.4921    0.0386   30.1370 H     2195  UNL2195     0.1146
   8779 H          28.6335    1.5701   29.6044 H     2195  UNL2195     0.1146
   8780 H          29.0441    0.3298   28.6338 H     2195  UNL2195     0.1146
   8781 N          28.4382    3.2810    1.0703 N.3   2196  UNL2196    -0.3437
   8782 H          27.9965    2.4092    0.7818 H     2196  UNL2196     0.1146
   8783 H          29.1638    3.0211    1.7369 H     2196  UNL2196     0.1146
   8784 H          28.9257    3.6344    0.2482 H     2196  UNL2196     0.1146
   8785 N          28.4382    3.2810    3.3590 N.3   2197  UNL2197    -0.3437
   8786 H          27.9965    2.4092    3.0705 H     2197  UNL2197     0.1146
   8787 H          29.1638    3.0211    4.0256 H     2197  UNL2197     0.1146
   8788 H          28.9257    3.6344    2.5369 H     2197  UNL2197     0.1146
   8789 N          28.4382    3.2810    5.6477 N.3   2198  UNL2198    -0.3437
   8790 H          27.9965    2.4092    5.3592 H     2198  UNL2198     0.1146
   8791 H          29.1638    3.0211    6.3143 H     2198  UNL2198     0.1146
   8792 H          28.9257    3.6344    4.8256 H     2198  UNL2198     0.1146
   8793 N          28.4382    3.2810    7.9365 N.3   2199  UNL2199    -0.3437
   8794 H          27.9965    2.4092    7.6479 H     2199  UNL2199     0.1146
   8795 H          29.1638    3.0211    8.6031 H     2199  UNL2199     0.1146
   8796 H          28.9257    3.6344    7.1144 H     2199  UNL2199     0.1146
   8797 N          28.4382    3.0589    9.8918 N.3   2200  UNL2200    -0.3437
   8798 H          27.9965    3.3495   10.7629 H     2200  UNL2200     0.1146
   8799 H          29.1638    3.7485    9.7011 H     2200  UNL2200     0.1146
   8800 H          28.9257    2.1888   10.1007 H     2200  UNL2200     0.1146
   8801 N          28.4382    3.0589   12.1806 N.3   2201  UNL2201    -0.3437
   8802 H          27.9965    3.3495   13.0517 H     2201  UNL2201     0.1146
   8803 H          29.1638    3.7485   11.9899 H     2201  UNL2201     0.1146
   8804 H          28.9257    2.1888   12.3895 H     2201  UNL2201     0.1146
   8805 N          28.4382    2.9248   14.8467 N.3   2202  UNL2202    -0.3437
   8806 H          27.9965    3.4488   14.0926 H     2202  UNL2202     0.1146
   8807 H          29.1638    2.3593   14.4084 H     2202  UNL2202     0.1146
   8808 H          28.9257    3.6129   15.4188 H     2202  UNL2202     0.1146
   8809 N          28.4382    3.2810   17.0913 N.3   2203  UNL2203    -0.3437
   8810 H          27.9965    2.4092   16.8028 H     2203  UNL2203     0.1146
   8811 H          29.1638    3.0211   17.7579 H     2203  UNL2203     0.1146
   8812 H          28.9257    3.6344   16.2692 H     2203  UNL2203     0.1146
   8813 N          28.4382    3.2810   19.3800 N.3   2204  UNL2204    -0.3437
   8814 H          27.9965    2.4092   19.0915 H     2204  UNL2204     0.1146
   8815 H          29.1638    3.0211   20.0466 H     2204  UNL2204     0.1146
   8816 H          28.9257    3.6344   18.5579 H     2204  UNL2204     0.1146
   8817 N          28.4382    3.2810   21.6687 N.3   2205  UNL2205    -0.3437
   8818 H          27.9965    2.4092   21.3802 H     2205  UNL2205     0.1146
   8819 H          29.1638    3.0211   22.3353 H     2205  UNL2205     0.1146
   8820 H          28.9257    3.6344   20.8466 H     2205  UNL2205     0.1146
   8821 N          28.4382    3.0589   23.6241 N.3   2206  UNL2206    -0.3437
   8822 H          27.9965    3.3495   24.4952 H     2206  UNL2206     0.1146
   8823 H          29.1638    3.7485   23.4334 H     2206  UNL2206     0.1146
   8824 H          28.9257    2.1888   23.8330 H     2206  UNL2206     0.1146
   8825 N          28.4382    0.9248   26.2903 N.3   2207  UNL2207    -0.3437
   8826 H          27.9965    1.4488   25.5361 H     2207  UNL2207     0.1146
   8827 H          29.1638    0.3593   25.8519 H     2207  UNL2207     0.1146
   8828 H          28.9257    1.6129   26.8623 H     2207  UNL2207     0.1146
   8829 N          28.3544    3.0759   29.3203 N.3   2208  UNL2208    -0.3437
   8830 H          28.4921    2.4824   30.1370 H     2208  UNL2208     0.1146
   8831 H          28.6335    4.0139   29.6044 H     2208  UNL2208     0.1146
   8832 H          29.0441    2.7736   28.6338 H     2208  UNL2208     0.1146
   8833 N          28.4382    5.5027    0.7370 N.3   2209  UNL2209    -0.3437
   8834 H          27.9965    5.7933    1.6081 H     2209  UNL2209     0.1146
   8835 H          29.1638    6.1923    0.5463 H     2209  UNL2209     0.1146
   8836 H          28.9257    4.6326    0.9459 H     2209  UNL2209     0.1146
   8837 N          28.4382    5.5027    3.0257 N.3   2210  UNL2210    -0.3437
   8838 H          27.9965    5.7933    3.8968 H     2210  UNL2210     0.1146
   8839 H          29.1638    6.1923    2.8350 H     2210  UNL2210     0.1146
   8840 H          28.9257    4.6326    3.2346 H     2210  UNL2210     0.1146
   8841 N          28.4382    5.5027    5.3144 N.3   2211  UNL2211    -0.3437
   8842 H          27.9965    5.7933    6.1855 H     2211  UNL2211     0.1146
   8843 H          29.1638    6.1923    5.1237 H     2211  UNL2211     0.1146
   8844 H          28.9257    4.6326    5.5233 H     2211  UNL2211     0.1146
   8845 N          28.4382    5.5027    7.6031 N.3   2212  UNL2212    -0.3437
   8846 H          27.9965    5.7933    8.4742 H     2212  UNL2212     0.1146
   8847 H          29.1638    6.1923    7.4124 H     2212  UNL2212     0.1146
   8848 H          28.9257    4.6326    7.8120 H     2212  UNL2212     0.1146
   8849 N          28.4382    5.3686   10.2693 N.3   2213  UNL2213    -0.3437
   8850 H          27.9965    5.8926    9.5151 H     2213  UNL2213     0.1146
   8851 H          29.1638    4.8031    9.8309 H     2213  UNL2213     0.1146
   8852 H          28.9257    6.0567   10.8413 H     2213  UNL2213     0.1146
   8853 N          28.5683    5.5027   12.6904 N.3   2214  UNL2214    -0.3437
   8854 H          29.5305    5.7933   12.5230 H     2214  UNL2214     0.1146
   8855 H          27.9813    6.1923   12.2232 H     2214  UNL2214     0.1146
   8856 H          28.4439    4.6326   12.1749 H     2214  UNL2214     0.1146
   8857 N          28.4382    5.5027   14.4693 N.3   2215  UNL2215    -0.3437
   8858 H          27.9965    5.7933   15.3404 H     2215  UNL2215     0.1146
   8859 H          29.1638    6.1923   14.2786 H     2215  UNL2215     0.1146
   8860 H          28.9257    4.6326   14.6782 H     2215  UNL2215     0.1146
   8861 N          28.4382    5.5027   16.7580 N.3   2216  UNL2216    -0.3437
   8862 H          27.9965    5.7933   17.6291 H     2216  UNL2216     0.1146
   8863 H          29.1638    6.1923   16.5673 H     2216  UNL2216     0.1146
   8864 H          28.9257    4.6326   16.9669 H     2216  UNL2216     0.1146
   8865 N          28.4382    5.5027   19.0467 N.3   2217  UNL2217    -0.3437
   8866 H          27.9965    5.7933   19.9178 H     2217  UNL2217     0.1146
   8867 H          29.1638    6.1923   18.8560 H     2217  UNL2217     0.1146
   8868 H          28.9257    4.6326   19.2556 H     2217  UNL2217     0.1146
   8869 N          28.4382    5.5027   21.3354 N.3   2218  UNL2218    -0.3437
   8870 H          27.9965    5.7933   22.2065 H     2218  UNL2218     0.1146
   8871 H          29.1638    6.1923   21.1447 H     2218  UNL2218     0.1146
   8872 H          28.9257    4.6326   21.5443 H     2218  UNL2218     0.1146
   8873 N          28.4382    5.3686   24.0016 N.3   2219  UNL2219    -0.3437
   8874 H          27.9965    5.8926   23.2474 H     2219  UNL2219     0.1146
   8875 H          29.1638    4.8031   23.5632 H     2219  UNL2219     0.1146
   8876 H          28.9257    6.0567   24.5736 H     2219  UNL2219     0.1146
   8877 N          28.4382    3.7248   26.2462 N.3   2220  UNL2220    -0.3437
   8878 H          27.9965    2.8530   25.9577 H     2220  UNL2220     0.1146
   8879 H          29.1638    3.4649   26.9128 H     2220  UNL2220     0.1146
   8880 H          28.9257    4.0782   25.4241 H     2220  UNL2220     0.1146
   8881 N          28.3544    5.5197   29.3203 N.3   2221  UNL2221    -0.3437
   8882 H          28.4921    4.9262   30.1370 H     2221  UNL2221     0.1146
   8883 H          28.6335    6.4577   29.6044 H     2221  UNL2221     0.1146
   8884 H          29.0441    5.2174   28.6338 H     2221  UNL2221     0.1146
   8885 N          28.4382    8.1686    1.0703 N.3   2222  UNL2222    -0.3437
   8886 H          27.9965    7.2968    0.7818 H     2222  UNL2222     0.1146
   8887 H          29.1638    7.9087    1.7369 H     2222  UNL2222     0.1146
   8888 H          28.9257    8.5220    0.2482 H     2222  UNL2222     0.1146
   8889 N          28.4382    8.1686    3.3590 N.3   2223  UNL2223    -0.3437
   8890 H          27.9965    7.2968    3.0705 H     2223  UNL2223     0.1146
   8891 H          29.1638    7.9087    4.0256 H     2223  UNL2223     0.1146
   8892 H          28.9257    8.5220    2.5369 H     2223  UNL2223     0.1146
   8893 N          28.4382    8.1686    5.6477 N.3   2224  UNL2224    -0.3437
   8894 H          27.9965    7.2968    5.3592 H     2224  UNL2224     0.1146
   8895 H          29.1638    7.9087    6.3143 H     2224  UNL2224     0.1146
   8896 H          28.9257    8.5220    4.8256 H     2224  UNL2224     0.1146
   8897 N          28.4382    8.1686    7.9365 N.3   2225  UNL2225    -0.3437
   8898 H          27.9965    7.2968    7.6479 H     2225  UNL2225     0.1146
   8899 H          29.1638    7.9087    8.6031 H     2225  UNL2225     0.1146
   8900 H          28.9257    8.5220    7.1144 H     2225  UNL2225     0.1146
   8901 N          28.4382    8.1686   10.2252 N.3   2226  UNL2226    -0.3437
   8902 H          27.9965    7.2968    9.9367 H     2226  UNL2226     0.1146
   8903 H          29.1638    7.9087   10.8918 H     2226  UNL2226     0.1146
   8904 H          28.9257    8.5220    9.4031 H     2226  UNL2226     0.1146
   8905 N          28.4382    7.9465   12.1806 N.3   2227  UNL2227    -0.3437
   8906 H          27.9965    8.2371   13.0517 H     2227  UNL2227     0.1146
   8907 H          29.1638    8.6361   11.9899 H     2227  UNL2227     0.1146
   8908 H          28.9257    7.0764   12.3895 H     2227  UNL2227     0.1146
   8909 N          28.4382    7.8124   14.8467 N.3   2228  UNL2228    -0.3437
   8910 H          27.9965    8.3364   14.0926 H     2228  UNL2228     0.1146
   8911 H          29.1638    7.2469   14.4084 H     2228  UNL2228     0.1146
   8912 H          28.9257    8.5005   15.4188 H     2228  UNL2228     0.1146
   8913 N          28.4382    8.1686   17.0913 N.3   2229  UNL2229    -0.3437
   8914 H          27.9965    7.2968   16.8028 H     2229  UNL2229     0.1146
   8915 H          29.1638    7.9087   17.7579 H     2229  UNL2229     0.1146
   8916 H          28.9257    8.5220   16.2692 H     2229  UNL2229     0.1146
   8917 N          28.4382    8.1686   19.3800 N.3   2230  UNL2230    -0.3437
   8918 H          27.9965    7.2968   19.0915 H     2230  UNL2230     0.1146
   8919 H          29.1638    7.9087   20.0466 H     2230  UNL2230     0.1146
   8920 H          28.9257    8.5220   18.5579 H     2230  UNL2230     0.1146
   8921 N          28.4017    7.8537   21.4152 N.3   2231  UNL2231    -0.3437
   8922 H          28.5294    7.4705   22.3508 H     2231  UNL2231     0.1146
   8923 H          28.3066    8.8612   21.5350 H     2231  UNL2231     0.1146
   8924 H          29.2863    7.7108   20.9300 H     2231  UNL2231     0.1146
   8925 N          28.4382    8.1686   23.9575 N.3   2232  UNL2232    -0.3437
   8926 H          27.9965    7.2968   23.6690 H     2232  UNL2232     0.1146
   8927 H          29.1638    7.9087   24.6241 H     2232  UNL2232     0.1146
   8928 H          28.9257    8.5220   23.1354 H     2232  UNL2232     0.1146
   8929 N          28.4382    6.1686   26.2462 N.3   2233  UNL2233    -0.3437
   8930 H          27.9965    5.2968   25.9577 H     2233  UNL2233     0.1146
   8931 H          29.1638    5.9087   26.9128 H     2233  UNL2233     0.1146
   8932 H          28.9257    6.5220   25.4241 H     2233  UNL2233     0.1146
   8933 N          28.3544    7.9635   29.3203 N.3   2234  UNL2234    -0.3437
   8934 H          28.4921    7.3700   30.1370 H     2234  UNL2234     0.1146
   8935 H          28.6335    8.9015   29.6044 H     2234  UNL2234     0.1146
   8936 H          29.0441    7.6612   28.6338 H     2234  UNL2234     0.1146
   8937 N          28.4382   10.6125    1.0703 N.3   2235  UNL2235    -0.3437
   8938 H          27.9965    9.7407    0.7818 H     2235  UNL2235     0.1146
   8939 H          29.1638   10.3525    1.7369 H     2235  UNL2235     0.1146
   8940 H          28.9257   10.9658    0.2482 H     2235  UNL2235     0.1146
   8941 N          28.4382   10.3903    3.0257 N.3   2236  UNL2236    -0.3437
   8942 H          27.9965   10.6809    3.8968 H     2236  UNL2236     0.1146
   8943 H          29.1638   11.0799    2.8350 H     2236  UNL2236     0.1146
   8944 H          28.9257    9.5202    3.2346 H     2236  UNL2236     0.1146
   8945 N          28.4017   10.2975    5.3942 N.3   2237  UNL2237    -0.3437
   8946 H          28.5294    9.9143    6.3298 H     2237  UNL2237     0.1146
   8947 H          28.3066   11.3050    5.5140 H     2237  UNL2237     0.1146
   8948 H          29.2863   10.1547    4.9090 H     2237  UNL2237     0.1146
   8949 N          28.4382   10.6125    7.9365 N.3   2238  UNL2238    -0.3437
   8950 H          27.9965    9.7407    7.6479 H     2238  UNL2238     0.1146
   8951 H          29.1638   10.3525    8.6031 H     2238  UNL2238     0.1146
   8952 H          28.9257   10.9658    7.1144 H     2238  UNL2238     0.1146
   8953 N          28.4382   10.6125   10.2252 N.3   2239  UNL2239    -0.3437
   8954 H          27.9965    9.7407    9.9367 H     2239  UNL2239     0.1146
   8955 H          29.1638   10.3525   10.8918 H     2239  UNL2239     0.1146
   8956 H          28.9257   10.9658    9.4031 H     2239  UNL2239     0.1146
   8957 N          28.4017   10.2975   12.2604 N.3   2240  UNL2240    -0.3437
   8958 H          28.5294    9.9143   13.1959 H     2240  UNL2240     0.1146
   8959 H          28.3066   11.3050   12.3801 H     2240  UNL2240     0.1146
   8960 H          29.2863   10.1547   11.7751 H     2240  UNL2240     0.1146
   8961 N          28.4382   10.6125   14.8026 N.3   2241  UNL2241    -0.3437
   8962 H          27.9965    9.7407   14.5141 H     2241  UNL2241     0.1146
   8963 H          29.1638   10.3525   15.4692 H     2241  UNL2241     0.1146
   8964 H          28.9257   10.9658   13.9805 H     2241  UNL2241     0.1146
   8965 N          28.4382   10.6125   17.0913 N.3   2242  UNL2242    -0.3437
   8966 H          27.9965    9.7407   16.8028 H     2242  UNL2242     0.1146
   8967 H          29.1638   10.3525   17.7579 H     2242  UNL2242     0.1146
   8968 H          28.9257   10.9658   16.2692 H     2242  UNL2242     0.1146
   8969 N          28.4382   10.6125   19.3800 N.3   2243  UNL2243    -0.3437
   8970 H          27.9965    9.7407   19.0915 H     2243  UNL2243     0.1146
   8971 H          29.1638   10.3525   20.0466 H     2243  UNL2243     0.1146
   8972 H          28.9257   10.9658   18.5579 H     2243  UNL2243     0.1146
   8973 N          28.4382   10.3903   21.3354 N.3   2244  UNL2244    -0.3437
   8974 H          27.9965   10.6809   22.2065 H     2244  UNL2244     0.1146
   8975 H          29.1638   11.0799   21.1447 H     2244  UNL2244     0.1146
   8976 H          28.9257    9.5202   21.5443 H     2244  UNL2244     0.1146
   8977 N          28.4382   10.2562   24.0016 N.3   2245  UNL2245    -0.3437
   8978 H          27.9965   10.7802   23.2474 H     2245  UNL2245     0.1146
   8979 H          29.1638    9.6907   23.5632 H     2245  UNL2245     0.1146
   8980 H          28.9257   10.9443   24.5736 H     2245  UNL2245     0.1146
   8981 N          28.5683    8.3903   26.4227 N.3   2246  UNL2246    -0.3437
   8982 H          29.5305    8.6809   26.2553 H     2246  UNL2246     0.1146
   8983 H          27.9813    9.0799   25.9555 H     2246  UNL2246     0.1146
   8984 H          28.4439    7.5202   25.9071 H     2246  UNL2246     0.1146
   8985 N          28.3544   10.4074   29.3203 N.3   2247  UNL2247    -0.3437
   8986 H          28.4921    9.8138   30.1370 H     2247  UNL2247     0.1146
   8987 H          28.6335   11.3453   29.6044 H     2247  UNL2247     0.1146
   8988 H          29.0441   10.1050   28.6338 H     2247  UNL2247     0.1146
   8989 N          28.6448   13.0496    0.7315 N.3   2248  UNL2248    -0.3437
   8990 H          28.0233   13.3724    1.4717 H     2248  UNL2248     0.1146
   8991 H          29.5509   12.8972    1.1721 H     2248  UNL2248     0.1146
   8992 H          28.3051   12.1275    0.4619 H     2248  UNL2248     0.1146
   8993 N          28.6448   13.0496    3.0203 N.3   2249  UNL2249    -0.3437
   8994 H          28.0233   13.3724    3.7605 H     2249  UNL2249     0.1146
   8995 H          29.5509   12.8972    3.4608 H     2249  UNL2249     0.1146
   8996 H          28.3051   12.1275    2.7506 H     2249  UNL2249     0.1146
   8997 N          28.6448   13.0496    5.3090 N.3   2250  UNL2250    -0.3437
   8998 H          28.0233   13.3724    6.0492 H     2250  UNL2250     0.1146
   8999 H          29.5509   12.8972    5.7495 H     2250  UNL2250     0.1146
   9000 H          28.3051   12.1275    5.0393 H     2250  UNL2250     0.1146
   9001 N          28.6448   13.0496    7.5977 N.3   2251  UNL2251    -0.3437
   9002 H          28.0233   13.3724    8.3379 H     2251  UNL2251     0.1146
   9003 H          29.5509   12.8972    8.0382 H     2251  UNL2251     0.1146
   9004 H          28.3051   12.1275    7.3280 H     2251  UNL2251     0.1146
   9005 N          28.6448   13.0496    9.8864 N.3   2252  UNL2252    -0.3437
   9006 H          28.0233   13.3724   10.6266 H     2252  UNL2252     0.1146
   9007 H          29.5509   12.8972   10.3270 H     2252  UNL2252     0.1146
   9008 H          28.3051   12.1275    9.6167 H     2252  UNL2252     0.1146
   9009 N          28.4382   12.8341   12.1806 N.3   2253  UNL2253    -0.3437
   9010 H          27.9965   13.1247   13.0517 H     2253  UNL2253     0.1146
   9011 H          29.1638   13.5237   11.9899 H     2253  UNL2253     0.1146
   9012 H          28.9257   11.9640   12.3895 H     2253  UNL2253     0.1146
   9013 N          28.4382   12.7000   14.8467 N.3   2254  UNL2254    -0.3437
   9014 H          27.9965   13.2240   14.0926 H     2254  UNL2254     0.1146
   9015 H          29.1638   12.1345   14.4084 H     2254  UNL2254     0.1146
   9016 H          28.9257   13.3881   15.4188 H     2254  UNL2254     0.1146
   9017 N          28.5683   12.8341   17.2679 N.3   2255  UNL2255    -0.3437
   9018 H          29.5305   13.1247   17.1004 H     2255  UNL2255     0.1146
   9019 H          27.9813   13.5237   16.8007 H     2255  UNL2255     0.1146
   9020 H          28.4439   11.9640   16.7523 H     2255  UNL2255     0.1146
   9021 N          28.4382   12.8341   19.0467 N.3   2256  UNL2256    -0.3437
   9022 H          27.9965   13.1247   19.9178 H     2256  UNL2256     0.1146
   9023 H          29.1638   13.5237   18.8560 H     2256  UNL2256     0.1146
   9024 H          28.9257   11.9640   19.2556 H     2256  UNL2256     0.1146
   9025 N          28.6753   12.6430   21.3639 N.3   2257  UNL2257    -0.3437
   9026 H          27.7309   12.6450   21.7464 H     2257  UNL2257     0.1146
   9027 H          28.8150   13.5662   20.9556 H     2257  UNL2257     0.1146
   9028 H          29.3028   12.5925   22.1652 H     2257  UNL2257     0.1146
   9029 N          28.4382   12.7000   24.0016 N.3   2258  UNL2258    -0.3437
   9030 H          27.9965   13.2240   23.2474 H     2258  UNL2258     0.1146
   9031 H          29.1638   12.1345   23.5632 H     2258  UNL2258     0.1146
   9032 H          28.9257   13.3881   24.5736 H     2258  UNL2258     0.1146
   9033 N          28.6637   10.9350   25.8507 N.3   2259  UNL2259    -0.3437
   9034 H          27.7539   10.5211   26.0488 H     2259  UNL2259     0.1146
   9035 H          28.7508   11.7345   26.4765 H     2259  UNL2259     0.1146
   9036 H          29.3556   10.2560   26.1647 H     2259  UNL2259     0.1146
   9037 N          28.3544   12.8512   29.3203 N.3   2260  UNL2260    -0.3437
   9038 H          28.4921   12.2576   30.1370 H     2260  UNL2260     0.1146
   9039 H          28.6335   13.7891   29.6044 H     2260  UNL2260     0.1146
   9040 H          29.0441   12.5488   28.6338 H     2260  UNL2260     0.1146
   9041 N          28.4382   15.5001    1.0703 N.3   2261  UNL2261    -0.3437
   9042 H          27.9965   14.6283    0.7818 H     2261  UNL2261     0.1146
   9043 H          29.1638   15.2401    1.7369 H     2261  UNL2261     0.1146
   9044 H          28.9257   15.8534    0.2482 H     2261  UNL2261     0.1146
   9045 N          28.4382   15.5001    3.3590 N.3   2262  UNL2262    -0.3437
   9046 H          27.9965   14.6283    3.0705 H     2262  UNL2262     0.1146
   9047 H          29.1638   15.2401    4.0256 H     2262  UNL2262     0.1146
   9048 H          28.9257   15.8534    2.5369 H     2262  UNL2262     0.1146
   9049 N          28.4382   15.5001    5.6477 N.3   2263  UNL2263    -0.3437
   9050 H          27.9965   14.6283    5.3592 H     2263  UNL2263     0.1146
   9051 H          29.1638   15.2401    6.3143 H     2263  UNL2263     0.1146
   9052 H          28.9257   15.8534    4.8256 H     2263  UNL2263     0.1146
   9053 N          28.4382   15.5001    7.9365 N.3   2264  UNL2264    -0.3437
   9054 H          27.9965   14.6283    7.6479 H     2264  UNL2264     0.1146
   9055 H          29.1638   15.2401    8.6031 H     2264  UNL2264     0.1146
   9056 H          28.9257   15.8534    7.1144 H     2264  UNL2264     0.1146
   9057 N          28.4382   15.5001   10.2252 N.3   2265  UNL2265    -0.3437
   9058 H          27.9965   14.6283    9.9367 H     2265  UNL2265     0.1146
   9059 H          29.1638   15.2401   10.8918 H     2265  UNL2265     0.1146
   9060 H          28.9257   15.8534    9.4031 H     2265  UNL2265     0.1146
   9061 N          28.4017   15.1851   12.2604 N.3   2266  UNL2266    -0.3437
   9062 H          28.5294   14.8019   13.1959 H     2266  UNL2266     0.1146
   9063 H          28.3066   16.1926   12.3801 H     2266  UNL2266     0.1146
   9064 H          29.2863   15.0423   11.7751 H     2266  UNL2266     0.1146
   9065 N          28.6448   15.4934   14.4638 N.3   2267  UNL2267    -0.3437
   9066 H          28.0233   15.8162   15.2040 H     2267  UNL2267     0.1146
   9067 H          29.5509   15.3410   14.9044 H     2267  UNL2267     0.1146
   9068 H          28.3051   14.5713   14.1941 H     2267  UNL2267     0.1146
   9069 N          28.4382   15.2779   16.7580 N.3   2268  UNL2268    -0.3437
   9070 H          27.9965   15.5685   17.6291 H     2268  UNL2268     0.1146
   9071 H          29.1638   15.9675   16.5673 H     2268  UNL2268     0.1146
   9072 H          28.9257   14.4078   16.9669 H     2268  UNL2268     0.1146
   9073 N          28.6448   15.4934   19.0413 N.3   2269  UNL2269    -0.3437
   9074 H          28.0233   15.8162   19.7815 H     2269  UNL2269     0.1146
   9075 H          29.5509   15.3410   19.4818 H     2269  UNL2269     0.1146
   9076 H          28.3051   14.5713   18.7716 H     2269  UNL2269     0.1146
   9077 N          28.4382   15.2779   21.3354 N.3   2270  UNL2270    -0.3437
   9078 H          27.9965   15.5685   22.2065 H     2270  UNL2270     0.1146
   9079 H          29.1638   15.9675   21.1447 H     2270  UNL2270     0.1146
   9080 H          28.9257   14.4078   21.5443 H     2270  UNL2270     0.1146
   9081 N          28.4017   15.1851   23.7040 N.3   2271  UNL2271    -0.3437
   9082 H          28.5294   14.8019   24.6395 H     2271  UNL2271     0.1146
   9083 H          28.3066   16.1926   23.8237 H     2271  UNL2271     0.1146
   9084 H          29.2863   15.0423   23.2187 H     2271  UNL2271     0.1146
   9085 N          28.4382   13.2779   25.9128 N.3   2272  UNL2272    -0.3437
   9086 H          27.9965   13.5685   26.7840 H     2272  UNL2272     0.1146
   9087 H          29.1638   13.9675   25.7221 H     2272  UNL2272     0.1146
   9088 H          28.9257   12.4078   26.1217 H     2272  UNL2272     0.1146
   9089 N          28.3544   15.2950   29.3203 N.3   2273  UNL2273    -0.3437
   9090 H          28.4921   14.7014   30.1370 H     2273  UNL2273     0.1146
   9091 H          28.6335   16.2329   29.6044 H     2273  UNL2273     0.1146
   9092 H          29.0441   14.9926   28.6338 H     2273  UNL2273     0.1146
   9093 N          28.4382   17.7217    0.7370 N.3   2274  UNL2274    -0.3437
   9094 H          27.9965   18.0123    1.6081 H     2274  UNL2274     0.1146
   9095 H          29.1638   18.4114    0.5463 H     2274  UNL2274     0.1146
   9096 H          28.9257   16.8517    0.9459 H     2274  UNL2274     0.1146
   9097 N          28.4382   17.7217    3.0257 N.3   2275  UNL2275    -0.3437
   9098 H          27.9965   18.0123    3.8968 H     2275  UNL2275     0.1146
   9099 H          29.1638   18.4114    2.8350 H     2275  UNL2275     0.1146
   9100 H          28.9257   16.8517    3.2346 H     2275  UNL2275     0.1146
   9101 N          28.4382   17.7217    5.3144 N.3   2276  UNL2276    -0.3437
   9102 H          27.9965   18.0123    6.1855 H     2276  UNL2276     0.1146
   9103 H          29.1638   18.4114    5.1237 H     2276  UNL2276     0.1146
   9104 H          28.9257   16.8517    5.5233 H     2276  UNL2276     0.1146
   9105 N          28.4382   17.7217    7.6031 N.3   2277  UNL2277    -0.3437
   9106 H          27.9965   18.0123    8.4742 H     2277  UNL2277     0.1146
   9107 H          29.1638   18.4114    7.4124 H     2277  UNL2277     0.1146
   9108 H          28.9257   16.8517    7.8120 H     2277  UNL2277     0.1146
   9109 N          28.4382   17.7217    9.8918 N.3   2278  UNL2278    -0.3437
   9110 H          27.9965   18.0123   10.7629 H     2278  UNL2278     0.1146
   9111 H          29.1638   18.4114    9.7011 H     2278  UNL2278     0.1146
   9112 H          28.9257   16.8517   10.1007 H     2278  UNL2278     0.1146
   9113 N          28.4382   17.7217   12.1806 N.3   2279  UNL2279    -0.3437
   9114 H          27.9965   18.0123   13.0517 H     2279  UNL2279     0.1146
   9115 H          29.1638   18.4114   11.9899 H     2279  UNL2279     0.1146
   9116 H          28.9257   16.8517   12.3895 H     2279  UNL2279     0.1146
   9117 N          28.6448   17.9372   14.4638 N.3   2280  UNL2280    -0.3437
   9118 H          28.0233   18.2600   15.2040 H     2280  UNL2280     0.1146
   9119 H          29.5509   17.7848   14.9044 H     2280  UNL2280     0.1146
   9120 H          28.3051   17.0151   14.1941 H     2280  UNL2280     0.1146
   9121 N          28.6447   17.9372   16.7525 N.3   2281  UNL2281    -0.3437
   9122 H          28.0233   18.2600   17.4928 H     2281  UNL2281     0.1146
   9123 H          29.5509   17.7848   17.1931 H     2281  UNL2281     0.1146
   9124 H          28.3051   17.0151   16.4829 H     2281  UNL2281     0.1146
   9125 N          28.4382   17.7217   19.0467 N.3   2282  UNL2282    -0.3437
   9126 H          27.9965   18.0123   19.9178 H     2282  UNL2282     0.1146
   9127 H          29.1638   18.4114   18.8560 H     2282  UNL2282     0.1146
   9128 H          28.9257   16.8517   19.2556 H     2282  UNL2282     0.1146
   9129 N          28.6753   17.5306   21.3639 N.3   2283  UNL2283    -0.3437
   9130 H          27.7309   17.5326   21.7464 H     2283  UNL2283     0.1146
   9131 H          28.8150   18.4538   20.9556 H     2283  UNL2283     0.1146
   9132 H          29.3028   17.4801   22.1652 H     2283  UNL2283     0.1146
   9133 N          28.5683   17.7217   24.1340 N.3   2284  UNL2284    -0.3437
   9134 H          29.5305   18.0123   23.9666 H     2284  UNL2284     0.1146
   9135 H          27.9813   18.4114   23.6668 H     2284  UNL2284     0.1146
   9136 H          28.4439   16.8517   23.6184 H     2284  UNL2284     0.1146
   9137 N          28.4166   15.5490   26.1711 N.3   2285  UNL2285    -0.3437
   9138 H          28.4750   16.2073   26.9468 H     2285  UNL2285     0.1146
   9139 H          28.2917   16.1138   25.3322 H     2285  UNL2285     0.1146
   9140 H          29.3407   15.1271   26.0906 H     2285  UNL2285     0.1146
   9141 N          28.3544   17.7388   29.3203 N.3   2286  UNL2286    -0.3437
   9142 H          28.4921   17.1452   30.1370 H     2286  UNL2286     0.1146
   9143 H          28.6335   18.6767   29.6044 H     2286  UNL2286     0.1146
   9144 H          29.0441   17.4364   28.6338 H     2286  UNL2286     0.1146
   9145 N          28.4382   20.3877    1.0703 N.3   2287  UNL2287    -0.3437
   9146 H          27.9965   19.5159    0.7818 H     2287  UNL2287     0.1146
   9147 H          29.1638   20.1278    1.7369 H     2287  UNL2287     0.1146
   9148 H          28.9257   20.7410    0.2482 H     2287  UNL2287     0.1146
   9149 N          28.4382   20.1656    3.0257 N.3   2288  UNL2288    -0.3437
   9150 H          27.9965   20.4562    3.8968 H     2288  UNL2288     0.1146
   9151 H          29.1638   20.8552    2.8350 H     2288  UNL2288     0.1146
   9152 H          28.9257   19.2955    3.2346 H     2288  UNL2288     0.1146
   9153 N          28.4382   20.0314    5.6918 N.3   2289  UNL2289    -0.3437
   9154 H          27.9965   20.5554    4.9377 H     2289  UNL2289     0.1146
   9155 H          29.1638   19.4660    5.2535 H     2289  UNL2289     0.1146
   9156 H          28.9257   20.7195    6.2639 H     2289  UNL2289     0.1146
   9157 N          28.5683   20.1656    8.1130 N.3   2290  UNL2290    -0.3437
   9158 H          29.5305   20.4562    7.9456 H     2290  UNL2290     0.1146
   9159 H          27.9813   20.8552    7.6458 H     2290  UNL2290     0.1146
   9160 H          28.4439   19.2955    7.5974 H     2290  UNL2290     0.1146
   9161 N          28.5683   20.1656   10.4017 N.3   2291  UNL2291    -0.3437
   9162 H          29.5305   20.4562   10.2343 H     2291  UNL2291     0.1146
   9163 H          27.9813   20.8552    9.9345 H     2291  UNL2291     0.1146
   9164 H          28.4439   19.2955    9.8861 H     2291  UNL2291     0.1146
   9165 N          28.4017   20.0727   12.2604 N.3   2292  UNL2292    -0.3437
   9166 H          28.5294   19.6895   13.1959 H     2292  UNL2292     0.1146
   9167 H          28.3066   21.0802   12.3801 H     2292  UNL2292     0.1146
   9168 H          29.2863   19.9299   11.7751 H     2292  UNL2292     0.1146
   9169 N          28.6448   20.3810   14.4638 N.3   2293  UNL2293    -0.3437
   9170 H          28.0233   20.7038   15.2040 H     2293  UNL2293     0.1146
   9171 H          29.5509   20.2286   14.9044 H     2293  UNL2293     0.1146
   9172 H          28.3051   19.4589   14.1941 H     2293  UNL2293     0.1146
   9173 N          28.6447   20.3810   16.7525 N.3   2294  UNL2294    -0.3437
   9174 H          28.0233   20.7038   17.4928 H     2294  UNL2294     0.1146
   9175 H          29.5509   20.2286   17.1931 H     2294  UNL2294     0.1146
   9176 H          28.3051   19.4589   16.4829 H     2294  UNL2294     0.1146
   9177 N          28.6447   20.3810   19.0413 N.3   2295  UNL2295    -0.3437
   9178 H          28.0233   20.7038   19.7815 H     2295  UNL2295     0.1146
   9179 H          29.5509   20.2286   19.4818 H     2295  UNL2295     0.1146
   9180 H          28.3051   19.4589   18.7716 H     2295  UNL2295     0.1146
   9181 N          28.4382   20.1656   21.3354 N.3   2296  UNL2296    -0.3437
   9182 H          27.9965   20.4562   22.2065 H     2296  UNL2296     0.1146
   9183 H          29.1638   20.8552   21.1447 H     2296  UNL2296     0.1146
   9184 H          28.9257   19.2955   21.5443 H     2296  UNL2296     0.1146
   9185 N          28.4017   20.0727   23.7040 N.3   2297  UNL2297    -0.3437
   9186 H          28.5294   19.6895   24.6395 H     2297  UNL2297     0.1146
   9187 H          28.3066   21.0802   23.8237 H     2297  UNL2297     0.1146
   9188 H          29.2863   19.9299   23.2187 H     2297  UNL2297     0.1146
   9189 N          28.4382   20.3877   26.2462 N.3   2298  UNL2298    -0.3437
   9190 H          27.9965   19.5159   25.9577 H     2298  UNL2298     0.1146
   9191 H          29.1638   20.1278   26.9128 H     2298  UNL2298     0.1146
   9192 H          28.9257   20.7410   25.4241 H     2298  UNL2298     0.1146
   9193 N          28.3544   20.1826   29.3203 N.3   2299  UNL2299    -0.3437
   9194 H          28.4921   19.5890   30.1370 H     2299  UNL2299     0.1146
   9195 H          28.6335   21.1205   29.6044 H     2299  UNL2299     0.1146
   9196 H          29.0441   19.8802   28.6338 H     2299  UNL2299     0.1146
   9197 N          28.4382   22.4752    1.1144 N.3   2300  UNL2300    -0.3437
   9198 H          27.9965   22.9992    0.3603 H     2300  UNL2300     0.1146
   9199 H          29.1638   21.9098    0.6761 H     2300  UNL2300     0.1146
   9200 H          28.9257   23.1633    1.6865 H     2300  UNL2300     0.1146
   9201 N          28.4382   22.8315    3.3590 N.3   2301  UNL2301    -0.3437
   9202 H          27.9965   21.9597    3.0705 H     2301  UNL2301     0.1146
   9203 H          29.1638   22.5716    4.0256 H     2301  UNL2301     0.1146
   9204 H          28.9257   23.1848    2.5369 H     2301  UNL2301     0.1146
   9205 N          28.4382   22.6094    5.3144 N.3   2302  UNL2302    -0.3437
   9206 H          27.9965   22.9000    6.1855 H     2302  UNL2302     0.1146
   9207 H          29.1638   23.2990    5.1237 H     2302  UNL2302     0.1146
   9208 H          28.9257   21.7393    5.5233 H     2302  UNL2302     0.1146
   9209 N          28.4382   22.4752    7.9806 N.3   2303  UNL2303    -0.3437
   9210 H          27.9965   22.9992    7.2264 H     2303  UNL2303     0.1146
   9211 H          29.1638   21.9098    7.5422 H     2303  UNL2303     0.1146
   9212 H          28.9257   23.1633    8.5526 H     2303  UNL2303     0.1146
   9213 N          28.4382   22.6094    9.8918 N.3   2304  UNL2304    -0.3437
   9214 H          27.9965   22.9000   10.7629 H     2304  UNL2304     0.1146
   9215 H          29.1638   23.2990    9.7011 H     2304  UNL2304     0.1146
   9216 H          28.9257   21.7393   10.1007 H     2304  UNL2304     0.1146
   9217 N          28.4382   22.6094   12.1806 N.3   2305  UNL2305    -0.3437
   9218 H          27.9965   22.9000   13.0517 H     2305  UNL2305     0.1146
   9219 H          29.1638   23.2990   11.9899 H     2305  UNL2305     0.1146
   9220 H          28.9257   21.7393   12.3895 H     2305  UNL2305     0.1146
   9221 N          28.6448   22.8248   14.4638 N.3   2306  UNL2306    -0.3437
   9222 H          28.0233   23.1476   15.2040 H     2306  UNL2306     0.1146
   9223 H          29.5509   22.6724   14.9044 H     2306  UNL2306     0.1146
   9224 H          28.3051   21.9027   14.1941 H     2306  UNL2306     0.1146
   9225 N          28.6447   22.8248   16.7525 N.3   2307  UNL2307    -0.3437
   9226 H          28.0233   23.1476   17.4928 H     2307  UNL2307     0.1146
   9227 H          29.5509   22.6724   17.1931 H     2307  UNL2307     0.1146
   9228 H          28.3051   21.9027   16.4829 H     2307  UNL2307     0.1146
   9229 N          28.4017   22.5165   19.1265 N.3   2308  UNL2308    -0.3437
   9230 H          28.5294   22.1333   20.0621 H     2308  UNL2308     0.1146
   9231 H          28.3066   23.5240   19.2462 H     2308  UNL2308     0.1146
   9232 H          29.2863   22.3737   18.6413 H     2308  UNL2308     0.1146
   9233 N          28.4382   22.4752   21.7128 N.3   2309  UNL2309    -0.3437
   9234 H          27.9965   22.9992   20.9587 H     2309  UNL2309     0.1146
   9235 H          29.1638   21.9098   21.2745 H     2309  UNL2309     0.1146
   9236 H          28.9257   23.1633   22.2849 H     2309  UNL2309     0.1146
   9237 N          28.4382   22.8315   23.9575 N.3   2310  UNL2310    -0.3437
   9238 H          27.9965   21.9597   23.6690 H     2310  UNL2310     0.1146
   9239 H          29.1638   22.5716   24.6241 H     2310  UNL2310     0.1146
   9240 H          28.9257   23.1848   23.1354 H     2310  UNL2310     0.1146
   9241 N          28.4382   22.8315   26.2462 N.3   2311  UNL2311    -0.3437
   9242 H          27.9965   21.9597   25.9577 H     2311  UNL2311     0.1146
   9243 H          29.1638   22.5716   26.9128 H     2311  UNL2311     0.1146
   9244 H          28.9257   23.1848   25.4241 H     2311  UNL2311     0.1146
   9245 N          28.3544   22.6264   29.3203 N.3   2312  UNL2312    -0.3437
   9246 H          28.4921   22.0328   30.1370 H     2312  UNL2312     0.1146
   9247 H          28.6335   23.5643   29.6044 H     2312  UNL2312     0.1146
   9248 H          29.0441   22.3240   28.6338 H     2312  UNL2312     0.1146
   9249 N          28.4382   25.2753    1.0703 N.3   2313  UNL2313    -0.3437
   9250 H          27.9965   24.4035    0.7818 H     2313  UNL2313     0.1146
   9251 H          29.1638   25.0154    1.7369 H     2313  UNL2313     0.1146
   9252 H          28.9257   25.6286    0.2482 H     2313  UNL2313     0.1146
   9253 N          28.4382   25.2753    3.3590 N.3   2314  UNL2314    -0.3437
   9254 H          27.9965   24.4035    3.0705 H     2314  UNL2314     0.1146
   9255 H          29.1638   25.0154    4.0256 H     2314  UNL2314     0.1146
   9256 H          28.9257   25.6286    2.5369 H     2314  UNL2314     0.1146
   9257 N          28.4017   24.9603    5.3942 N.3   2315  UNL2315    -0.3437
   9258 H          28.5294   24.5771    6.3298 H     2315  UNL2315     0.1146
   9259 H          28.3066   25.9678    5.5140 H     2315  UNL2315     0.1146
   9260 H          29.2863   24.8175    4.9090 H     2315  UNL2315     0.1146
   9261 N          28.4382   25.2753    7.9365 N.3   2316  UNL2316    -0.3437
   9262 H          27.9965   24.4035    7.6479 H     2316  UNL2316     0.1146
   9263 H          29.1638   25.0154    8.6031 H     2316  UNL2316     0.1146
   9264 H          28.9257   25.6286    7.1144 H     2316  UNL2316     0.1146
   9265 N          28.4017   24.9603    9.9717 N.3   2317  UNL2317    -0.3437
   9266 H          28.5294   24.5771   10.9072 H     2317  UNL2317     0.1146
   9267 H          28.3066   25.9678   10.0914 H     2317  UNL2317     0.1146
   9268 H          29.2863   24.8175    9.4864 H     2317  UNL2317     0.1146
   9269 N          28.4017   24.9603   12.2604 N.3   2318  UNL2318    -0.3437
   9270 H          28.5294   24.5771   13.1959 H     2318  UNL2318     0.1146
   9271 H          28.3066   25.9678   12.3801 H     2318  UNL2318     0.1146
   9272 H          29.2863   24.8175   11.7751 H     2318  UNL2318     0.1146
   9273 N          28.4017   24.9603   14.5491 N.3   2319  UNL2319    -0.3437
   9274 H          28.5294   24.5771   15.4846 H     2319  UNL2319     0.1146
   9275 H          28.3066   25.9678   14.6688 H     2319  UNL2319     0.1146
   9276 H          29.2863   24.8175   14.0639 H     2319  UNL2319     0.1146
   9277 N          28.4382   25.2753   17.0913 N.3   2320  UNL2320    -0.3437
   9278 H          27.9965   24.4035   16.8028 H     2320  UNL2320     0.1146
   9279 H          29.1638   25.0154   17.7579 H     2320  UNL2320     0.1146
   9280 H          28.9257   25.6286   16.2692 H     2320  UNL2320     0.1146
   9281 N          28.4382   25.0532   19.0467 N.3   2321  UNL2321    -0.3437
   9282 H          27.9965   25.3438   19.9178 H     2321  UNL2321     0.1146
   9283 H          29.1638   25.7428   18.8560 H     2321  UNL2321     0.1146
   9284 H          28.9257   24.1831   19.2556 H     2321  UNL2321     0.1146
   9285 N          28.4382   25.0532   21.3354 N.3   2322  UNL2322    -0.3437
   9286 H          27.9965   25.3438   22.2065 H     2322  UNL2322     0.1146
   9287 H          29.1638   25.7428   21.1447 H     2322  UNL2322     0.1146
   9288 H          28.9257   24.1831   21.5443 H     2322  UNL2322     0.1146
   9289 N          28.4382   24.9191   24.0016 N.3   2323  UNL2323    -0.3437
   9290 H          27.9965   25.4430   23.2474 H     2323  UNL2323     0.1146
   9291 H          29.1638   24.3536   23.5632 H     2323  UNL2323     0.1146
   9292 H          28.9257   25.6071   24.5736 H     2323  UNL2323     0.1146
   9293 N          28.5683   25.0532   26.4227 N.3   2324  UNL2324    -0.3437
   9294 H          29.5305   25.3438   26.2553 H     2324  UNL2324     0.1146
   9295 H          27.9813   25.7428   25.9555 H     2324  UNL2324     0.1146
   9296 H          28.4439   24.1831   25.9071 H     2324  UNL2324     0.1146
   9297 N          28.3544   25.0702   29.3203 N.3   2325  UNL2325    -0.3437
   9298 H          28.4921   24.4766   30.1370 H     2325  UNL2325     0.1146
   9299 H          28.6335   26.0081   29.6044 H     2325  UNL2325     0.1146
   9300 H          29.0441   24.7678   28.6338 H     2325  UNL2325     0.1146
   9301 N          28.4382   27.4970    0.7370 N.3   2326  UNL2326    -0.3437
   9302 H          27.9965   27.7876    1.6081 H     2326  UNL2326     0.1146
   9303 H          29.1638   28.1866    0.5463 H     2326  UNL2326     0.1146
   9304 H          28.9257   26.6269    0.9459 H     2326  UNL2326     0.1146
   9305 N          28.4382   27.4970    3.0257 N.3   2327  UNL2327    -0.3437
   9306 H          27.9965   27.7876    3.8968 H     2327  UNL2327     0.1146
   9307 H          29.1638   28.1866    2.8350 H     2327  UNL2327     0.1146
   9308 H          28.9257   26.6269    3.2346 H     2327  UNL2327     0.1146
   9309 N          28.4382   27.4970    5.3144 N.3   2328  UNL2328    -0.3437
   9310 H          27.9965   27.7876    6.1855 H     2328  UNL2328     0.1146
   9311 H          29.1638   28.1866    5.1237 H     2328  UNL2328     0.1146
   9312 H          28.9257   26.6269    5.5233 H     2328  UNL2328     0.1146
   9313 N          28.4382   27.4970    7.6031 N.3   2329  UNL2329    -0.3437
   9314 H          27.9965   27.7876    8.4742 H     2329  UNL2329     0.1146
   9315 H          29.1638   28.1866    7.4124 H     2329  UNL2329     0.1146
   9316 H          28.9257   26.6269    7.8120 H     2329  UNL2329     0.1146
   9317 N          28.4382   27.4970    9.8918 N.3   2330  UNL2330    -0.3437
   9318 H          27.9965   27.7876   10.7629 H     2330  UNL2330     0.1146
   9319 H          29.1638   28.1866    9.7011 H     2330  UNL2330     0.1146
   9320 H          28.9257   26.6269   10.1007 H     2330  UNL2330     0.1146
   9321 N          28.4382   27.4970   12.1806 N.3   2331  UNL2331    -0.3437
   9322 H          27.9965   27.7876   13.0517 H     2331  UNL2331     0.1146
   9323 H          29.1638   28.1866   11.9899 H     2331  UNL2331     0.1146
   9324 H          28.9257   26.6269   12.3895 H     2331  UNL2331     0.1146
   9325 N          28.4382   27.4970   14.4693 N.3   2332  UNL2332    -0.3437
   9326 H          27.9965   27.7876   15.3404 H     2332  UNL2332     0.1146
   9327 H          29.1638   28.1866   14.2786 H     2332  UNL2332     0.1146
   9328 H          28.9257   26.6269   14.6782 H     2332  UNL2332     0.1146
   9329 N          28.4382   27.4970   16.7580 N.3   2333  UNL2333    -0.3437
   9330 H          27.9965   27.7876   17.6291 H     2333  UNL2333     0.1146
   9331 H          29.1638   28.1866   16.5673 H     2333  UNL2333     0.1146
   9332 H          28.9257   26.6269   16.9669 H     2333  UNL2333     0.1146
   9333 N          28.4382   27.3629   19.4241 N.3   2334  UNL2334    -0.3437
   9334 H          27.9965   27.8868   18.6700 H     2334  UNL2334     0.1146
   9335 H          29.1638   26.7974   18.9858 H     2334  UNL2334     0.1146
   9336 H          28.9257   28.0509   19.9962 H     2334  UNL2334     0.1146
   9337 N          28.5683   27.4970   21.8453 N.3   2335  UNL2335    -0.3437
   9338 H          29.5305   27.7876   21.6778 H     2335  UNL2335     0.1146
   9339 H          27.9813   28.1866   21.3781 H     2335  UNL2335     0.1146
   9340 H          28.4439   26.6269   21.3297 H     2335  UNL2335     0.1146
   9341 N          28.4382   27.4970   23.6241 N.3   2336  UNL2336    -0.3437
   9342 H          27.9965   27.7876   24.4952 H     2336  UNL2336     0.1146
   9343 H          29.1638   28.1866   23.4334 H     2336  UNL2336     0.1146
   9344 H          28.9257   26.6269   23.8330 H     2336  UNL2336     0.1146
   9345 N          28.4382   27.3629   26.2903 N.3   2337  UNL2337    -0.3437
   9346 H          27.9965   27.8868   25.5361 H     2337  UNL2337     0.1146
   9347 H          29.1638   26.7974   25.8519 H     2337  UNL2337     0.1146
   9348 H          28.9257   28.0509   26.8623 H     2337  UNL2337     0.1146
   9349 N          28.3544   27.5140   29.3203 N.3   2338  UNL2338    -0.3437
   9350 H          28.4921   26.9204   30.1370 H     2338  UNL2338     0.1146
   9351 H          28.6335   28.4519   29.6044 H     2338  UNL2338     0.1146
   9352 H          29.0441   27.2116   28.6338 H     2338  UNL2338     0.1146
   9353 N          28.4382   30.9408    0.7370 N.3   2339  UNL2339    -0.3437
   9354 H          27.9965   31.2314    1.6081 H     2339  UNL2339     0.1146
   9355 H          29.1638   31.6304    0.5463 H     2339  UNL2339     0.1146
   9356 H          28.9257   30.0707    0.9459 H     2339  UNL2339     0.1146
   9357 N          28.4382   30.9408    3.0257 N.3   2340  UNL2340    -0.3437
   9358 H          27.9965   31.2314    3.8968 H     2340  UNL2340     0.1146
   9359 H          29.1638   31.6304    2.8350 H     2340  UNL2340     0.1146
   9360 H          28.9257   30.0707    3.2346 H     2340  UNL2340     0.1146
   9361 N          28.4382   30.9408    5.3144 N.3   2341  UNL2341    -0.3437
   9362 H          27.9965   31.2314    6.1855 H     2341  UNL2341     0.1146
   9363 H          29.1638   31.6304    5.1237 H     2341  UNL2341     0.1146
   9364 H          28.9257   30.0707    5.5233 H     2341  UNL2341     0.1146
   9365 N          28.5683   29.9408    8.1130 N.3   2342  UNL2342    -0.3437
   9366 H          29.5305   30.2314    7.9456 H     2342  UNL2342     0.1146
   9367 H          27.9813   30.6304    7.6458 H     2342  UNL2342     0.1146
   9368 H          28.4439   29.0707    7.5974 H     2342  UNL2342     0.1146
   9369 N          28.4382   30.9408    9.8918 N.3   2343  UNL2343    -0.3437
   9370 H          27.9965   31.2314   10.7629 H     2343  UNL2343     0.1146
   9371 H          29.1638   31.6304    9.7011 H     2343  UNL2343     0.1146
   9372 H          28.9257   30.0707   10.1007 H     2343  UNL2343     0.1146
   9373 N          28.4382   30.9408   12.1806 N.3   2344  UNL2344    -0.3437
   9374 H          27.9965   31.2314   13.0517 H     2344  UNL2344     0.1146
   9375 H          29.1638   31.6304   11.9899 H     2344  UNL2344     0.1146
   9376 H          28.9257   30.0707   12.3895 H     2344  UNL2344     0.1146
   9377 N          28.6280   30.7107   14.5467 N.3   2345  UNL2345    -0.3437
   9378 H          27.6935   31.0854   14.7036 H     2345  UNL2345     0.1146
   9379 H          29.1419   31.4367   14.0494 H     2345  UNL2345     0.1146
   9380 H          29.0606   30.6405   15.4667 H     2345  UNL2345     0.1146
   9381 N          28.4382   30.9408   16.7580 N.3   2346  UNL2346    -0.3437
   9382 H          27.9965   31.2314   17.6291 H     2346  UNL2346     0.1146
   9383 H          29.1638   31.6304   16.5673 H     2346  UNL2346     0.1146
   9384 H          28.9257   30.0707   16.9669 H     2346  UNL2346     0.1146
   9385 N          28.4382   30.9408   19.0467 N.3   2347  UNL2347    -0.3437
   9386 H          27.9965   31.2314   19.9178 H     2347  UNL2347     0.1146
   9387 H          29.1638   31.6304   18.8560 H     2347  UNL2347     0.1146
   9388 H          28.9257   30.0707   19.2556 H     2347  UNL2347     0.1146
   9389 N          28.4382   30.9408   21.3354 N.3   2348  UNL2348    -0.3437
   9390 H          27.9965   31.2314   22.2065 H     2348  UNL2348     0.1146
   9391 H          29.1638   31.6304   21.1447 H     2348  UNL2348     0.1146
   9392 H          28.9257   30.0707   21.5443 H     2348  UNL2348     0.1146
   9393 N          28.6280   30.7107   23.7016 N.3   2349  UNL2349    -0.3437
   9394 H          27.6935   31.0854   23.8585 H     2349  UNL2349     0.1146
   9395 H          29.1419   31.4367   23.2043 H     2349  UNL2349     0.1146
   9396 H          29.0606   30.6405   24.6215 H     2349  UNL2349     0.1146
   9397 N          28.4382   30.9408   25.9128 N.3   2350  UNL2350    -0.3437
   9398 H          27.9965   31.2314   26.7840 H     2350  UNL2350     0.1146
   9399 H          29.1638   31.6304   25.7221 H     2350  UNL2350     0.1146
   9400 H          28.9257   30.0707   26.1217 H     2350  UNL2350     0.1146
   9401 N          28.4382   29.9408   28.2016 N.3   2351  UNL2351    -0.3437
   9402 H          27.9965   30.2314   29.0727 H     2351  UNL2351     0.1146
   9403 H          29.1638   30.6304   28.0109 H     2351  UNL2351     0.1146
   9404 H          28.9257   29.0707   28.4105 H     2351  UNL2351     0.1146
   9405 N          30.6323    0.6151   -1.2630 N.3   2352  UNL2352    -0.3437
   9406 H          30.1906    0.9057   -0.3919 H     2352  UNL2352     0.1146
   9407 H          31.3579    1.3047   -1.4537 H     2352  UNL2352     0.1146
   9408 H          31.1198   -0.2550   -1.0541 H     2352  UNL2352     0.1146
   9409 N          30.6107    0.4424    1.2840 N.3   2353  UNL2353    -0.3437
   9410 H          30.6692    1.1007    2.0596 H     2353  UNL2353     0.1146
   9411 H          30.4859    1.0071    0.4450 H     2353  UNL2353     0.1146
   9412 H          31.5348    0.0204    1.2035 H     2353  UNL2353     0.1146
   9413 N          30.6323    0.8372    3.6477 N.3   2354  UNL2354    -0.3437
   9414 H          30.1906   -0.0346    3.3592 H     2354  UNL2354     0.1146
   9415 H          31.3579    0.5773    4.3143 H     2354  UNL2354     0.1146
   9416 H          31.1198    1.1906    2.8256 H     2354  UNL2354     0.1146
   9417 N          30.6323    0.8372    5.9365 N.3   2355  UNL2355    -0.3437
   9418 H          30.1906   -0.0346    5.6479 H     2355  UNL2355     0.1146
   9419 H          31.3579    0.5773    6.6031 H     2355  UNL2355     0.1146
   9420 H          31.1198    1.1906    5.1144 H     2355  UNL2355     0.1146
   9421 N          30.6323    0.8372    8.2252 N.3   2356  UNL2356    -0.3437
   9422 H          30.1906   -0.0346    7.9367 H     2356  UNL2356     0.1146
   9423 H          31.3579    0.5773    8.8918 H     2356  UNL2356     0.1146
   9424 H          31.1198    1.1906    7.4031 H     2356  UNL2356     0.1146
   9425 N          30.6323    0.8372   10.5139 N.3   2357  UNL2357    -0.3437
   9426 H          30.1906   -0.0346   10.2254 H     2357  UNL2357     0.1146
   9427 H          31.3579    0.5773   11.1805 H     2357  UNL2357     0.1146
   9428 H          31.1198    1.1906    9.6918 H     2357  UNL2357     0.1146
   9429 N          30.6323    0.8372   12.8026 N.3   2358  UNL2358    -0.3437
   9430 H          30.1906   -0.0346   12.5141 H     2358  UNL2358     0.1146
   9431 H          31.3579    0.5773   13.4692 H     2358  UNL2358     0.1146
   9432 H          31.1198    1.1906   11.9805 H     2358  UNL2358     0.1146
   9433 N          30.6323    0.8372   15.0913 N.3   2359  UNL2359    -0.3437
   9434 H          30.1906   -0.0346   14.8028 H     2359  UNL2359     0.1146
   9435 H          31.3579    0.5773   15.7579 H     2359  UNL2359     0.1146
   9436 H          31.1198    1.1906   14.2692 H     2359  UNL2359     0.1146
   9437 N          30.6323    0.8372   17.3800 N.3   2360  UNL2360    -0.3437
   9438 H          30.1906   -0.0346   17.0915 H     2360  UNL2360     0.1146
   9439 H          31.3579    0.5773   18.0466 H     2360  UNL2360     0.1146
   9440 H          31.1198    1.1906   16.5579 H     2360  UNL2360     0.1146
   9441 N          30.6323    0.6151   21.3354 N.3   2361  UNL2361    -0.3437
   9442 H          30.1906    0.9057   22.2065 H     2361  UNL2361     0.1146
   9443 H          31.3579    1.3047   21.1447 H     2361  UNL2361     0.1146
   9444 H          31.1198   -0.2550   21.5443 H     2361  UNL2361     0.1146
   9445 N          30.6323    0.4810   24.0016 N.3   2362  UNL2362    -0.3437
   9446 H          30.1906    1.0050   23.2474 H     2362  UNL2362     0.1146
   9447 H          31.3579   -0.0845   23.5632 H     2362  UNL2362     0.1146
   9448 H          31.1198    1.1691   24.5736 H     2362  UNL2362     0.1146
   9449 N          30.6323    0.8372   26.2462 N.3   2363  UNL2363    -0.3437
   9450 H          30.1906   -0.0346   25.9577 H     2363  UNL2363     0.1146
   9451 H          31.3579    0.5773   26.9128 H     2363  UNL2363     0.1146
   9452 H          31.1198    1.1906   25.4241 H     2363  UNL2363     0.1146
   9453 N          30.6323    3.2810    1.0703 N.3   2364  UNL2364    -0.3437
   9454 H          30.1906    2.4092    0.7818 H     2364  UNL2364     0.1146
   9455 H          31.3579    3.0211    1.7369 H     2364  UNL2364     0.1146
   9456 H          31.1198    3.6344    0.2482 H     2364  UNL2364     0.1146
   9457 N          30.6323    3.2810    3.3590 N.3   2365  UNL2365    -0.3437
   9458 H          30.1906    2.4092    3.0705 H     2365  UNL2365     0.1146
   9459 H          31.3579    3.0211    4.0256 H     2365  UNL2365     0.1146
   9460 H          31.1198    3.6344    2.5369 H     2365  UNL2365     0.1146
   9461 N          30.6323    3.2810    5.6477 N.3   2366  UNL2366    -0.3437
   9462 H          30.1906    2.4092    5.3592 H     2366  UNL2366     0.1146
   9463 H          31.3579    3.0211    6.3143 H     2366  UNL2366     0.1146
   9464 H          31.1198    3.6344    4.8256 H     2366  UNL2366     0.1146
   9465 N          30.6323    3.2810    7.9365 N.3   2367  UNL2367    -0.3437
   9466 H          30.1906    2.4092    7.6479 H     2367  UNL2367     0.1146
   9467 H          31.3579    3.0211    8.6031 H     2367  UNL2367     0.1146
   9468 H          31.1198    3.6344    7.1144 H     2367  UNL2367     0.1146
   9469 N          30.8579    3.1598    9.8297 N.3   2368  UNL2368    -0.3437
   9470 H          29.9480    2.7459   10.0278 H     2368  UNL2368     0.1146
   9471 H          30.9450    3.9593   10.4555 H     2368  UNL2368     0.1146
   9472 H          31.5497    2.4808   10.1437 H     2368  UNL2368     0.1146
   9473 N          30.6323    3.0589   12.1806 N.3   2369  UNL2369    -0.3437
   9474 H          30.1906    3.3495   13.0517 H     2369  UNL2369     0.1146
   9475 H          31.3579    3.7485   11.9899 H     2369  UNL2369     0.1146
   9476 H          31.1198    2.1888   12.3895 H     2369  UNL2369     0.1146
   9477 N          30.8389    3.2743   14.4638 N.3   2370  UNL2370    -0.3437
   9478 H          30.2174    3.5972   15.2040 H     2370  UNL2370     0.1146
   9479 H          31.7450    3.1220   14.9044 H     2370  UNL2370     0.1146
   9480 H          30.4992    2.3523   14.1941 H     2370  UNL2370     0.1146
   9481 N          30.5958    2.9661   16.8378 N.3   2371  UNL2371    -0.3437
   9482 H          30.7236    2.5829   17.7733 H     2371  UNL2371     0.1146
   9483 H          30.5007    3.9736   16.9575 H     2371  UNL2371     0.1146
   9484 H          31.4804    2.8232   16.3526 H     2371  UNL2371     0.1146
   9485 N          30.5958    2.9661   19.1265 N.3   2372  UNL2372    -0.3437
   9486 H          30.7236    2.5829   20.0621 H     2372  UNL2372     0.1146
   9487 H          30.5007    3.9736   19.2462 H     2372  UNL2372     0.1146
   9488 H          31.4804    2.8232   18.6413 H     2372  UNL2372     0.1146
   9489 N          30.5958    2.9661   21.4152 N.3   2373  UNL2373    -0.3437
   9490 H          30.7236    2.5829   22.3508 H     2373  UNL2373     0.1146
   9491 H          30.5007    3.9736   21.5350 H     2373  UNL2373     0.1146
   9492 H          31.4804    2.8232   20.9300 H     2373  UNL2373     0.1146
   9493 N          30.6323    2.9248   24.0016 N.3   2374  UNL2374    -0.3437
   9494 H          30.1906    3.4488   23.2474 H     2374  UNL2374     0.1146
   9495 H          31.3579    2.3593   23.5632 H     2374  UNL2374     0.1146
   9496 H          31.1198    3.6129   24.5736 H     2374  UNL2374     0.1146
   9497 N          30.6323    3.2810   26.2462 N.3   2375  UNL2375    -0.3437
   9498 H          30.1906    2.4092   25.9577 H     2375  UNL2375     0.1146
   9499 H          31.3579    3.0211   26.9128 H     2375  UNL2375     0.1146
   9500 H          31.1198    3.6344   25.4241 H     2375  UNL2375     0.1146
   9501 N          30.7624    1.0589   29.7114 N.3   2376  UNL2376    -0.3437
   9502 H          31.7247    1.3495   29.5440 H     2376  UNL2376     0.1146
   9503 H          30.1754    1.7485   29.2443 H     2376  UNL2376     0.1146
   9504 H          30.6380    0.1888   29.1959 H     2376  UNL2376     0.1146
   9505 N          30.6323    5.5027    0.7370 N.3   2377  UNL2377    -0.3437
   9506 H          30.1906    5.7933    1.6081 H     2377  UNL2377     0.1146
   9507 H          31.3579    6.1923    0.5463 H     2377  UNL2377     0.1146
   9508 H          31.1198    4.6326    0.9459 H     2377  UNL2377     0.1146
   9509 N          30.6323    5.5027    3.0257 N.3   2378  UNL2378    -0.3437
   9510 H          30.1906    5.7933    3.8968 H     2378  UNL2378     0.1146
   9511 H          31.3579    6.1923    2.8350 H     2378  UNL2378     0.1146
   9512 H          31.1198    4.6326    3.2346 H     2378  UNL2378     0.1146
   9513 N          30.6323    5.5027    5.3144 N.3   2379  UNL2379    -0.3437
   9514 H          30.1906    5.7933    6.1855 H     2379  UNL2379     0.1146
   9515 H          31.3579    6.1923    5.1237 H     2379  UNL2379     0.1146
   9516 H          31.1198    4.6326    5.5233 H     2379  UNL2379     0.1146
   9517 N          30.6323    5.5027    7.6031 N.3   2380  UNL2380    -0.3437
   9518 H          30.1906    5.7933    8.4742 H     2380  UNL2380     0.1146
   9519 H          31.3579    6.1923    7.4124 H     2380  UNL2380     0.1146
   9520 H          31.1198    4.6326    7.8120 H     2380  UNL2380     0.1146
   9521 N          30.8389    5.7181    9.8864 N.3   2381  UNL2381    -0.3437
   9522 H          30.2174    6.0410   10.6266 H     2381  UNL2381     0.1146
   9523 H          31.7450    5.5658   10.3270 H     2381  UNL2381     0.1146
   9524 H          30.4992    4.7961    9.6167 H     2381  UNL2381     0.1146
   9525 N          30.8389    5.7181   12.1751 N.3   2382  UNL2382    -0.3437
   9526 H          30.2174    6.0410   12.9153 H     2382  UNL2382     0.1146
   9527 H          31.7450    5.5658   12.6157 H     2382  UNL2382     0.1146
   9528 H          30.4992    4.7961   11.9054 H     2382  UNL2382     0.1146
   9529 N          30.6323    5.5027   14.4693 N.3   2383  UNL2383    -0.3437
   9530 H          30.1906    5.7933   15.3404 H     2383  UNL2383     0.1146
   9531 H          31.3579    6.1923   14.2786 H     2383  UNL2383     0.1146
   9532 H          31.1198    4.6326   14.6782 H     2383  UNL2383     0.1146
   9533 N          30.6323    5.5027   16.7580 N.3   2384  UNL2384    -0.3437
   9534 H          30.1906    5.7933   17.6291 H     2384  UNL2384     0.1146
   9535 H          31.3579    6.1923   16.5673 H     2384  UNL2384     0.1146
   9536 H          31.1198    4.6326   16.9669 H     2384  UNL2384     0.1146
   9537 N          30.6323    5.5027   19.0467 N.3   2385  UNL2385    -0.3437
   9538 H          30.1906    5.7933   19.9178 H     2385  UNL2385     0.1146
   9539 H          31.3579    6.1923   18.8560 H     2385  UNL2385     0.1146
   9540 H          31.1198    4.6326   19.2556 H     2385  UNL2385     0.1146
   9541 N          30.6323    5.5027   21.3354 N.3   2386  UNL2386    -0.3437
   9542 H          30.1906    5.7933   22.2065 H     2386  UNL2386     0.1146
   9543 H          31.3579    6.1923   21.1447 H     2386  UNL2386     0.1146
   9544 H          31.1198    4.6326   21.5443 H     2386  UNL2386     0.1146
   9545 N          30.8389    5.7181   23.6187 N.3   2387  UNL2387    -0.3437
   9546 H          30.2174    6.0410   24.3589 H     2387  UNL2387     0.1146
   9547 H          31.7450    5.5658   24.0592 H     2387  UNL2387     0.1146
   9548 H          30.4992    4.7961   23.3490 H     2387  UNL2387     0.1146
   9549 N          30.6323    5.5027   25.9128 N.3   2388  UNL2388    -0.3437
   9550 H          30.1906    5.7933   26.7840 H     2388  UNL2388     0.1146
   9551 H          31.3579    6.1923   25.7221 H     2388  UNL2388     0.1146
   9552 H          31.1198    4.6326   26.1217 H     2388  UNL2388     0.1146
   9553 N          30.6323    3.3686   28.5790 N.3   2389  UNL2389    -0.3437
   9554 H          30.1906    3.8926   27.8249 H     2389  UNL2389     0.1146
   9555 H          31.3579    2.8031   28.1406 H     2389  UNL2389     0.1146
   9556 H          31.1198    4.0567   29.1511 H     2389  UNL2389     0.1146
   9557 N          30.6323    8.1686    1.0703 N.3   2390  UNL2390    -0.3437
   9558 H          30.1906    7.2968    0.7818 H     2390  UNL2390     0.1146
   9559 H          31.3579    7.9087    1.7369 H     2390  UNL2390     0.1146
   9560 H          31.1198    8.5220    0.2482 H     2390  UNL2390     0.1146
   9561 N          30.5958    7.8537    3.1055 N.3   2391  UNL2391    -0.3437
   9562 H          30.7236    7.4705    4.0410 H     2391  UNL2391     0.1146
   9563 H          30.5007    8.8612    3.2252 H     2391  UNL2391     0.1146
   9564 H          31.4804    7.7108    2.6203 H     2391  UNL2391     0.1146
   9565 N          30.5958    7.8537    5.3942 N.3   2392  UNL2392    -0.3437
   9566 H          30.7236    7.4705    6.3298 H     2392  UNL2392     0.1146
   9567 H          30.5007    8.8612    5.5140 H     2392  UNL2392     0.1146
   9568 H          31.4804    7.7108    4.9090 H     2392  UNL2392     0.1146
   9569 N          30.6323    8.1686    7.9365 N.3   2393  UNL2393    -0.3437
   9570 H          30.1906    7.2968    7.6479 H     2393  UNL2393     0.1146
   9571 H          31.3579    7.9087    8.6031 H     2393  UNL2393     0.1146
   9572 H          31.1198    8.5220    7.1144 H     2393  UNL2393     0.1146
   9573 N          30.6323    8.1686   10.2252 N.3   2394  UNL2394    -0.3437
   9574 H          30.1906    7.2968    9.9367 H     2394  UNL2394     0.1146
   9575 H          31.3579    7.9087   10.8918 H     2394  UNL2394     0.1146
   9576 H          31.1198    8.5220    9.4031 H     2394  UNL2394     0.1146
   9577 N          30.6323    7.9465   12.1806 N.3   2395  UNL2395    -0.3437
   9578 H          30.1906    8.2371   13.0517 H     2395  UNL2395     0.1146
   9579 H          31.3579    8.6361   11.9899 H     2395  UNL2395     0.1146
   9580 H          31.1198    7.0764   12.3895 H     2395  UNL2395     0.1146
   9581 N          30.8389    8.1620   14.4638 N.3   2396  UNL2396    -0.3437
   9582 H          30.2174    8.4848   15.2040 H     2396  UNL2396     0.1146
   9583 H          31.7450    8.0096   14.9044 H     2396  UNL2396     0.1146
   9584 H          30.4992    7.2399   14.1941 H     2396  UNL2396     0.1146
   9585 N          30.5958    7.8537   16.8378 N.3   2397  UNL2397    -0.3437
   9586 H          30.7236    7.4705   17.7733 H     2397  UNL2397     0.1146
   9587 H          30.5007    8.8612   16.9575 H     2397  UNL2397     0.1146
   9588 H          31.4804    7.7108   16.3526 H     2397  UNL2397     0.1146
   9589 N          30.5958    7.8537   19.1265 N.3   2398  UNL2398    -0.3437
   9590 H          30.7236    7.4705   20.0621 H     2398  UNL2398     0.1146
   9591 H          30.5007    8.8612   19.2462 H     2398  UNL2398     0.1146
   9592 H          31.4804    7.7108   18.6413 H     2398  UNL2398     0.1146
   9593 N          30.6323    7.8124   21.7128 N.3   2399  UNL2399    -0.3437
   9594 H          30.1906    8.3364   20.9587 H     2399  UNL2399     0.1146
   9595 H          31.3579    7.2469   21.2745 H     2399  UNL2399     0.1146
   9596 H          31.1198    8.5005   22.2849 H     2399  UNL2399     0.1146
   9597 N          30.6323    8.1686   23.9575 N.3   2400  UNL2400    -0.3437
   9598 H          30.1906    7.2968   23.6690 H     2400  UNL2400     0.1146
   9599 H          31.3579    7.9087   24.6241 H     2400  UNL2400     0.1146
   9600 H          31.1198    8.5220   23.1354 H     2400  UNL2400     0.1146
   9601 N          30.6323    8.1686   26.2462 N.3   2401  UNL2401    -0.3437
   9602 H          30.1906    7.2968   25.9577 H     2401  UNL2401     0.1146
   9603 H          31.3579    7.9087   26.9128 H     2401  UNL2401     0.1146
   9604 H          31.1198    8.5220   25.4241 H     2401  UNL2401     0.1146
   9605 N          30.6323    6.1686   28.5349 N.3   2402  UNL2402    -0.3437
   9606 H          30.1906    5.2968   28.2464 H     2402  UNL2402     0.1146
   9607 H          31.3579    5.9087   29.2015 H     2402  UNL2402     0.1146
   9608 H          31.1198    6.5220   27.7128 H     2402  UNL2402     0.1146
   9609 N          30.6323   10.6125    1.0703 N.3   2403  UNL2403    -0.3437
   9610 H          30.1906    9.7407    0.7818 H     2403  UNL2403     0.1146
   9611 H          31.3579   10.3525    1.7369 H     2403  UNL2403     0.1146
   9612 H          31.1198   10.9658    0.2482 H     2403  UNL2403     0.1146
   9613 N          30.6323   10.6125    3.3590 N.3   2404  UNL2404    -0.3437
   9614 H          30.1906    9.7407    3.0705 H     2404  UNL2404     0.1146
   9615 H          31.3579   10.3525    4.0256 H     2404  UNL2404     0.1146
   9616 H          31.1198   10.9658    2.5369 H     2404  UNL2404     0.1146
   9617 N          30.6323   10.3903    5.3144 N.3   2405  UNL2405    -0.3437
   9618 H          30.1906   10.6809    6.1855 H     2405  UNL2405     0.1146
   9619 H          31.3579   11.0799    5.1237 H     2405  UNL2405     0.1146
   9620 H          31.1198    9.5202    5.5233 H     2405  UNL2405     0.1146
   9621 N          30.5958   10.2975    7.6830 N.3   2406  UNL2406    -0.3437
   9622 H          30.7236    9.9143    8.6185 H     2406  UNL2406     0.1146
   9623 H          30.5007   11.3050    7.8027 H     2406  UNL2406     0.1146
   9624 H          31.4804   10.1547    7.1977 H     2406  UNL2406     0.1146
   9625 N          30.6323   10.6125   10.2252 N.3   2407  UNL2407    -0.3437
   9626 H          30.1906    9.7407    9.9367 H     2407  UNL2407     0.1146
   9627 H          31.3579   10.3525   10.8918 H     2407  UNL2407     0.1146
   9628 H          31.1198   10.9658    9.4031 H     2407  UNL2407     0.1146
   9629 N          30.6323   10.3903   12.1806 N.3   2408  UNL2408    -0.3437
   9630 H          30.1906   10.6809   13.0517 H     2408  UNL2408     0.1146
   9631 H          31.3579   11.0799   11.9899 H     2408  UNL2408     0.1146
   9632 H          31.1198    9.5202   12.3895 H     2408  UNL2408     0.1146
   9633 N          30.5958   10.2975   14.5491 N.3   2409  UNL2409    -0.3437
   9634 H          30.7236    9.9143   15.4846 H     2409  UNL2409     0.1146
   9635 H          30.5007   11.3050   14.6688 H     2409  UNL2409     0.1146
   9636 H          31.4804   10.1547   14.0639 H     2409  UNL2409     0.1146
   9637 N          30.6323   10.6125   17.0913 N.3   2410  UNL2410    -0.3437
   9638 H          30.1906    9.7407   16.8028 H     2410  UNL2410     0.1146
   9639 H          31.3579   10.3525   17.7579 H     2410  UNL2410     0.1146
   9640 H          31.1198   10.9658   16.2692 H     2410  UNL2410     0.1146
   9641 N          30.6323   10.6125   19.3800 N.3   2411  UNL2411    -0.3437
   9642 H          30.1906    9.7407   19.0915 H     2411  UNL2411     0.1146
   9643 H          31.3579   10.3525   20.0466 H     2411  UNL2411     0.1146
   9644 H          31.1198   10.9658   18.5579 H     2411  UNL2411     0.1146
   9645 N          30.6323   10.3903   21.3354 N.3   2412  UNL2412    -0.3437
   9646 H          30.1906   10.6809   22.2065 H     2412  UNL2412     0.1146
   9647 H          31.3579   11.0799   21.1447 H     2412  UNL2412     0.1146
   9648 H          31.1198    9.5202   21.5443 H     2412  UNL2412     0.1146
   9649 N          30.8389   10.6058   23.6187 N.3   2413  UNL2413    -0.3437
   9650 H          30.2174   10.9286   24.3589 H     2413  UNL2413     0.1146
   9651 H          31.7450   10.4534   24.0592 H     2413  UNL2413     0.1146
   9652 H          30.4992    9.6837   23.3490 H     2413  UNL2413     0.1146
   9653 N          30.5958   10.2975   25.9927 N.3   2414  UNL2414    -0.3437
   9654 H          30.7236    9.9143   26.9282 H     2414  UNL2414     0.1146
   9655 H          30.5007   11.3050   26.1124 H     2414  UNL2414     0.1146
   9656 H          31.4804   10.1547   25.5074 H     2414  UNL2414     0.1146
   9657 N          30.6323    8.6125   28.5349 N.3   2415  UNL2415    -0.3437
   9658 H          30.1906    7.7407   28.2464 H     2415  UNL2415     0.1146
   9659 H          31.3579    8.3525   29.2015 H     2415  UNL2415     0.1146
   9660 H          31.1198    8.9658   27.7128 H     2415  UNL2415     0.1146
   9661 N          30.7624   12.8341    1.2469 N.3   2416  UNL2416    -0.3437
   9662 H          31.7247   13.1247    1.0794 H     2416  UNL2416     0.1146
   9663 H          30.1754   13.5237    0.7797 H     2416  UNL2416     0.1146
   9664 H          30.6380   11.9640    0.7313 H     2416  UNL2416     0.1146
   9665 N          30.6323   12.8341    3.0257 N.3   2417  UNL2417    -0.3437
   9666 H          30.1906   13.1247    3.8968 H     2417  UNL2417     0.1146
   9667 H          31.3579   13.5237    2.8350 H     2417  UNL2417     0.1146
   9668 H          31.1198   11.9640    3.2346 H     2417  UNL2417     0.1146
   9669 N          30.6323   12.7000    5.6918 N.3   2418  UNL2418    -0.3437
   9670 H          30.1906   13.2240    4.9377 H     2418  UNL2418     0.1146
   9671 H          31.3579   12.1345    5.2535 H     2418  UNL2418     0.1146
   9672 H          31.1198   13.3881    6.2639 H     2418  UNL2418     0.1146
   9673 N          30.7624   12.8341    8.1130 N.3   2419  UNL2419    -0.3437
   9674 H          31.7247   13.1247    7.9456 H     2419  UNL2419     0.1146
   9675 H          30.1754   13.5237    7.6458 H     2419  UNL2419     0.1146
   9676 H          30.6380   11.9640    7.5974 H     2419  UNL2419     0.1146
   9677 N          30.6323   12.8341    9.8918 N.3   2420  UNL2420    -0.3437
   9678 H          30.1906   13.1247   10.7629 H     2420  UNL2420     0.1146
   9679 H          31.3579   13.5237    9.7011 H     2420  UNL2420     0.1146
   9680 H          31.1198   11.9640   10.1007 H     2420  UNL2420     0.1146
   9681 N          30.8695   12.6430   12.2090 N.3   2421  UNL2421    -0.3437
   9682 H          29.9250   12.6450   12.5915 H     2421  UNL2421     0.1146
   9683 H          31.0091   13.5662   11.8007 H     2421  UNL2421     0.1146
   9684 H          31.4969   12.5925   13.0103 H     2421  UNL2421     0.1146
   9685 N          30.8389   13.0496   14.4638 N.3   2422  UNL2422    -0.3437
   9686 H          30.2174   13.3724   15.2040 H     2422  UNL2422     0.1146
   9687 H          31.7450   12.8972   14.9044 H     2422  UNL2422     0.1146
   9688 H          30.4992   12.1275   14.1941 H     2422  UNL2422     0.1146
   9689 N          30.8389   13.0496   16.7525 N.3   2423  UNL2423    -0.3437
   9690 H          30.2174   13.3724   17.4928 H     2423  UNL2423     0.1146
   9691 H          31.7450   12.8972   17.1931 H     2423  UNL2423     0.1146
   9692 H          30.4992   12.1275   16.4829 H     2423  UNL2423     0.1146
   9693 N          30.8389   13.0496   19.0413 N.3   2424  UNL2424    -0.3437
   9694 H          30.2174   13.3724   19.7815 H     2424  UNL2424     0.1146
   9695 H          31.7450   12.8972   19.4818 H     2424  UNL2424     0.1146
   9696 H          30.4992   12.1275   18.7716 H     2424  UNL2424     0.1146
   9697 N          30.8389   13.0496   21.3300 N.3   2425  UNL2425    -0.3437
   9698 H          30.2174   13.3724   22.0702 H     2425  UNL2425     0.1146
   9699 H          31.7450   12.8972   21.7705 H     2425  UNL2425     0.1146
   9700 H          30.4992   12.1275   21.0603 H     2425  UNL2425     0.1146
   9701 N          30.8389   13.0496   23.6187 N.3   2426  UNL2426    -0.3437
   9702 H          30.2174   13.3724   24.3589 H     2426  UNL2426     0.1146
   9703 H          31.7450   12.8972   24.0592 H     2426  UNL2426     0.1146
   9704 H          30.4992   12.1275   23.3490 H     2426  UNL2426     0.1146
   9705 N          30.6323   13.0563   26.2462 N.3   2427  UNL2427    -0.3437
   9706 H          30.1906   12.1845   25.9577 H     2427  UNL2427     0.1146
   9707 H          31.3579   12.7963   26.9128 H     2427  UNL2427     0.1146
   9708 H          31.1198   13.4096   25.4241 H     2427  UNL2427     0.1146
   9709 N          30.6323   11.0563   28.5349 N.3   2428  UNL2428    -0.3437
   9710 H          30.1906   10.1845   28.2464 H     2428  UNL2428     0.1146
   9711 H          31.3579   10.7963   29.2015 H     2428  UNL2428     0.1146
   9712 H          31.1198   11.4096   27.7128 H     2428  UNL2428     0.1146
   9713 N          30.6323   15.5001    1.0703 N.3   2429  UNL2429    -0.3437
   9714 H          30.1906   14.6283    0.7818 H     2429  UNL2429     0.1146
   9715 H          31.3579   15.2401    1.7369 H     2429  UNL2429     0.1146
   9716 H          31.1198   15.8534    0.2482 H     2429  UNL2429     0.1146
   9717 N          30.5958   15.1851    3.1055 N.3   2430  UNL2430    -0.3437
   9718 H          30.7236   14.8019    4.0410 H     2430  UNL2430     0.1146
   9719 H          30.5007   16.1926    3.2252 H     2430  UNL2430     0.1146
   9720 H          31.4804   15.0423    2.6203 H     2430  UNL2430     0.1146
   9721 N          30.6323   15.5001    5.6477 N.3   2431  UNL2431    -0.3437
   9722 H          30.1906   14.6283    5.3592 H     2431  UNL2431     0.1146
   9723 H          31.3579   15.2401    6.3143 H     2431  UNL2431     0.1146
   9724 H          31.1198   15.8534    4.8256 H     2431  UNL2431     0.1146
   9725 N          30.6323   15.5001    7.9365 N.3   2432  UNL2432    -0.3437
   9726 H          30.1906   14.6283    7.6479 H     2432  UNL2432     0.1146
   9727 H          31.3579   15.2401    8.6031 H     2432  UNL2432     0.1146
   9728 H          31.1198   15.8534    7.1144 H     2432  UNL2432     0.1146
   9729 N          30.5958   15.1851    9.9717 N.3   2433  UNL2433    -0.3437
   9730 H          30.7236   14.8019   10.9072 H     2433  UNL2433     0.1146
   9731 H          30.5007   16.1926   10.0914 H     2433  UNL2433     0.1146
   9732 H          31.4804   15.0423    9.4864 H     2433  UNL2433     0.1146
   9733 N          30.6323   15.1438   12.5580 N.3   2434  UNL2434    -0.3437
   9734 H          30.1906   15.6678   11.8039 H     2434  UNL2434     0.1146
   9735 H          31.3579   14.5784   12.1196 H     2434  UNL2434     0.1146
   9736 H          31.1198   15.8319   13.1301 H     2434  UNL2434     0.1146
   9737 N          30.7624   15.2779   14.9792 N.3   2435  UNL2435    -0.3437
   9738 H          31.7247   15.5685   14.8117 H     2435  UNL2435     0.1146
   9739 H          30.1754   15.9675   14.5120 H     2435  UNL2435     0.1146
   9740 H          30.6380   14.4078   14.4636 H     2435  UNL2435     0.1146
   9741 N          30.8389   15.4934   16.7525 N.3   2436  UNL2436    -0.3437
   9742 H          30.2174   15.8162   17.4928 H     2436  UNL2436     0.1146
   9743 H          31.7450   15.3410   17.1931 H     2436  UNL2436     0.1146
   9744 H          30.4992   14.5713   16.4829 H     2436  UNL2436     0.1146
   9745 N          30.6323   15.2779   19.0467 N.3   2437  UNL2437    -0.3437
   9746 H          30.1906   15.5685   19.9178 H     2437  UNL2437     0.1146
   9747 H          31.3579   15.9675   18.8560 H     2437  UNL2437     0.1146
   9748 H          31.1198   14.4078   19.2556 H     2437  UNL2437     0.1146
   9749 N          30.6323   15.2779   21.3354 N.3   2438  UNL2438    -0.3437
   9750 H          30.1906   15.5685   22.2065 H     2438  UNL2438     0.1146
   9751 H          31.3579   15.9675   21.1447 H     2438  UNL2438     0.1146
   9752 H          31.1198   14.4078   21.5443 H     2438  UNL2438     0.1146
   9753 N          30.6323   15.1438   24.0016 N.3   2439  UNL2439    -0.3437
   9754 H          30.1906   15.6678   23.2474 H     2439  UNL2439     0.1146
   9755 H          31.3579   14.5784   23.5632 H     2439  UNL2439     0.1146
   9756 H          31.1198   15.8319   24.5736 H     2439  UNL2439     0.1146
   9757 N          30.6323   15.5001   26.2462 N.3   2440  UNL2440    -0.3437
   9758 H          30.1906   14.6283   25.9577 H     2440  UNL2440     0.1146
   9759 H          31.3579   15.2401   26.9128 H     2440  UNL2440     0.1146
   9760 H          31.1198   15.8534   25.4241 H     2440  UNL2440     0.1146
   9761 N          30.9658   13.0520   28.4816 N.3   2441  UNL2441    -0.3437
   9762 H          29.9782   13.0202   28.7305 H     2441  UNL2441     0.1146
   9763 H          30.9988   13.3053   27.4951 H     2441  UNL2441     0.1146
   9764 H          31.3578   13.8444   28.9883 H     2441  UNL2441     0.1146
   9765 N          30.6323   17.7217    0.7370 N.3   2442  UNL2442    -0.3437
   9766 H          30.1906   18.0123    1.6081 H     2442  UNL2442     0.1146
   9767 H          31.3579   18.4114    0.5463 H     2442  UNL2442     0.1146
   9768 H          31.1198   16.8517    0.9459 H     2442  UNL2442     0.1146
   9769 N          30.6323   17.7217    3.0257 N.3   2443  UNL2443    -0.3437
   9770 H          30.1906   18.0123    3.8968 H     2443  UNL2443     0.1146
   9771 H          31.3579   18.4114    2.8350 H     2443  UNL2443     0.1146
   9772 H          31.1198   16.8517    3.2346 H     2443  UNL2443     0.1146
   9773 N          30.6323   17.7217    5.3144 N.3   2444  UNL2444    -0.3437
   9774 H          30.1906   18.0123    6.1855 H     2444  UNL2444     0.1146
   9775 H          31.3579   18.4114    5.1237 H     2444  UNL2444     0.1146
   9776 H          31.1198   16.8517    5.5233 H     2444  UNL2444     0.1146
   9777 N          30.6323   17.7217    7.6031 N.3   2445  UNL2445    -0.3437
   9778 H          30.1906   18.0123    8.4742 H     2445  UNL2445     0.1146
   9779 H          31.3579   18.4114    7.4124 H     2445  UNL2445     0.1146
   9780 H          31.1198   16.8517    7.8120 H     2445  UNL2445     0.1146
   9781 N          30.6323   17.7217    9.8918 N.3   2446  UNL2446    -0.3437
   9782 H          30.1906   18.0123   10.7629 H     2446  UNL2446     0.1146
   9783 H          31.3579   18.4114    9.7011 H     2446  UNL2446     0.1146
   9784 H          31.1198   16.8517   10.1007 H     2446  UNL2446     0.1146
   9785 N          30.6323   17.7217   12.1806 N.3   2447  UNL2447    -0.3437
   9786 H          30.1906   18.0123   13.0517 H     2447  UNL2447     0.1146
   9787 H          31.3579   18.4114   11.9899 H     2447  UNL2447     0.1146
   9788 H          31.1198   16.8517   12.3895 H     2447  UNL2447     0.1146
   9789 N          30.6323   17.7217   14.4693 N.3   2448  UNL2448    -0.3437
   9790 H          30.1906   18.0123   15.3404 H     2448  UNL2448     0.1146
   9791 H          31.3579   18.4114   14.2786 H     2448  UNL2448     0.1146
   9792 H          31.1198   16.8517   14.6782 H     2448  UNL2448     0.1146
   9793 N          30.6323   17.7217   16.7580 N.3   2449  UNL2449    -0.3437
   9794 H          30.1906   18.0123   17.6291 H     2449  UNL2449     0.1146
   9795 H          31.3579   18.4114   16.5673 H     2449  UNL2449     0.1146
   9796 H          31.1198   16.8517   16.9669 H     2449  UNL2449     0.1146
   9797 N          30.6323   17.5876   19.4241 N.3   2450  UNL2450    -0.3437
   9798 H          30.1906   18.1116   18.6700 H     2450  UNL2450     0.1146
   9799 H          31.3579   17.0222   18.9858 H     2450  UNL2450     0.1146
   9800 H          31.1198   18.2757   19.9962 H     2450  UNL2450     0.1146
   9801 N          30.6323   17.9439   21.6687 N.3   2451  UNL2451    -0.3437
   9802 H          30.1906   17.0721   21.3802 H     2451  UNL2451     0.1146
   9803 H          31.3579   17.6839   22.3353 H     2451  UNL2451     0.1146
   9804 H          31.1198   18.2972   20.8466 H     2451  UNL2451     0.1146
   9805 N          30.6323   17.9439   23.9575 N.3   2452  UNL2452    -0.3437
   9806 H          30.1906   17.0721   23.6690 H     2452  UNL2452     0.1146
   9807 H          31.3579   17.6839   24.6241 H     2452  UNL2452     0.1146
   9808 H          31.1198   18.2972   23.1354 H     2452  UNL2452     0.1146
   9809 N          30.6323   17.9439   26.2462 N.3   2453  UNL2453    -0.3437
   9810 H          30.1906   17.0721   25.9577 H     2453  UNL2453     0.1146
   9811 H          31.3579   17.6839   26.9128 H     2453  UNL2453     0.1146
   9812 H          31.1198   18.2972   25.4241 H     2453  UNL2453     0.1146
   9813 N          30.9658   15.4958   28.4816 N.3   2454  UNL2454    -0.3437
   9814 H          29.9782   15.4640   28.7305 H     2454  UNL2454     0.1146
   9815 H          30.9988   15.7491   27.4951 H     2454  UNL2454     0.1146
   9816 H          31.3578   16.2882   28.9883 H     2454  UNL2454     0.1146
   9817 N          30.6323   20.3877    1.0703 N.3   2455  UNL2455    -0.3437
   9818 H          30.1906   19.5159    0.7818 H     2455  UNL2455     0.1146
   9819 H          31.3579   20.1278    1.7369 H     2455  UNL2455     0.1146
   9820 H          31.1198   20.7410    0.2482 H     2455  UNL2455     0.1146
   9821 N          30.6323   20.3877    3.3590 N.3   2456  UNL2456    -0.3437
   9822 H          30.1906   19.5159    3.0705 H     2456  UNL2456     0.1146
   9823 H          31.3579   20.1278    4.0256 H     2456  UNL2456     0.1146
   9824 H          31.1198   20.7410    2.5369 H     2456  UNL2456     0.1146
   9825 N          30.6323   20.3877    5.6477 N.3   2457  UNL2457    -0.3437
   9826 H          30.1906   19.5159    5.3592 H     2457  UNL2457     0.1146
   9827 H          31.3579   20.1278    6.3143 H     2457  UNL2457     0.1146
   9828 H          31.1198   20.7410    4.8256 H     2457  UNL2457     0.1146
   9829 N          30.6323   20.3877    7.9365 N.3   2458  UNL2458    -0.3437
   9830 H          30.1906   19.5159    7.6479 H     2458  UNL2458     0.1146
   9831 H          31.3579   20.1278    8.6031 H     2458  UNL2458     0.1146
   9832 H          31.1198   20.7410    7.1144 H     2458  UNL2458     0.1146
   9833 N          30.6323   20.3877   10.2252 N.3   2459  UNL2459    -0.3437
   9834 H          30.1906   19.5159    9.9367 H     2459  UNL2459     0.1146
   9835 H          31.3579   20.1278   10.8918 H     2459  UNL2459     0.1146
   9836 H          31.1198   20.7410    9.4031 H     2459  UNL2459     0.1146
   9837 N          30.6323   20.1656   12.1806 N.3   2460  UNL2460    -0.3437
   9838 H          30.1906   20.4562   13.0517 H     2460  UNL2460     0.1146
   9839 H          31.3579   20.8552   11.9899 H     2460  UNL2460     0.1146
   9840 H          31.1198   19.2955   12.3895 H     2460  UNL2460     0.1146
   9841 N          30.6323   20.0314   14.8467 N.3   2461  UNL2461    -0.3437
   9842 H          30.1906   20.5554   14.0926 H     2461  UNL2461     0.1146
   9843 H          31.3579   19.4660   14.4084 H     2461  UNL2461     0.1146
   9844 H          31.1198   20.7195   15.4188 H     2461  UNL2461     0.1146
   9845 N          30.6323   20.3877   17.0913 N.3   2462  UNL2462    -0.3437
   9846 H          30.1906   19.5159   16.8028 H     2462  UNL2462     0.1146
   9847 H          31.3579   20.1278   17.7579 H     2462  UNL2462     0.1146
   9848 H          31.1198   20.7410   16.2692 H     2462  UNL2462     0.1146
   9849 N          30.6323   20.1656   19.0467 N.3   2463  UNL2463    -0.3437
   9850 H          30.1906   20.4562   19.9178 H     2463  UNL2463     0.1146
   9851 H          31.3579   20.8552   18.8560 H     2463  UNL2463     0.1146
   9852 H          31.1198   19.2955   19.2556 H     2463  UNL2463     0.1146
   9853 N          30.6323   20.1656   21.3354 N.3   2464  UNL2464    -0.3437
   9854 H          30.1906   20.4562   22.2065 H     2464  UNL2464     0.1146
   9855 H          31.3579   20.8552   21.1447 H     2464  UNL2464     0.1146
   9856 H          31.1198   19.2955   21.5443 H     2464  UNL2464     0.1146
   9857 N          30.6323   20.0314   24.0016 N.3   2465  UNL2465    -0.3437
   9858 H          30.1906   20.5554   23.2474 H     2465  UNL2465     0.1146
   9859 H          31.3579   19.4660   23.5632 H     2465  UNL2465     0.1146
   9860 H          31.1198   20.7195   24.5736 H     2465  UNL2465     0.1146
   9861 N          30.6323   20.3877   26.2462 N.3   2466  UNL2466    -0.3437
   9862 H          30.1906   19.5159   25.9577 H     2466  UNL2466     0.1146
   9863 H          31.3579   20.1278   26.9128 H     2466  UNL2466     0.1146
   9864 H          31.1198   20.7410   25.4241 H     2466  UNL2466     0.1146
   9865 N          30.9658   17.9396   28.4816 N.3   2467  UNL2467    -0.3437
   9866 H          29.9782   17.9078   28.7305 H     2467  UNL2467     0.1146
   9867 H          30.9988   18.1929   27.4951 H     2467  UNL2467     0.1146
   9868 H          31.3578   18.7320   28.9883 H     2467  UNL2467     0.1146
   9869 N          30.8389   22.8248    0.7315 N.3   2468  UNL2468    -0.3437
   9870 H          30.2174   23.1476    1.4717 H     2468  UNL2468     0.1146
   9871 H          31.7450   22.6724    1.1721 H     2468  UNL2468     0.1146
   9872 H          30.4992   21.9027    0.4619 H     2468  UNL2468     0.1146
   9873 N          30.5958   22.5165    3.1055 N.3   2469  UNL2469    -0.3437
   9874 H          30.7236   22.1333    4.0410 H     2469  UNL2469     0.1146
   9875 H          30.5007   23.5240    3.2252 H     2469  UNL2469     0.1146
   9876 H          31.4804   22.3737    2.6203 H     2469  UNL2469     0.1146
   9877 N          30.6323   22.4752    5.6918 N.3   2470  UNL2470    -0.3437
   9878 H          30.1906   22.9992    4.9377 H     2470  UNL2470     0.1146
   9879 H          31.3579   21.9098    5.2535 H     2470  UNL2470     0.1146
   9880 H          31.1198   23.1633    6.2639 H     2470  UNL2470     0.1146
   9881 N          30.6323   22.8315    7.9365 N.3   2471  UNL2471    -0.3437
   9882 H          30.1906   21.9597    7.6479 H     2471  UNL2471     0.1146
   9883 H          31.3579   22.5716    8.6031 H     2471  UNL2471     0.1146
   9884 H          31.1198   23.1848    7.1144 H     2471  UNL2471     0.1146
   9885 N          30.6323   22.8315   10.2252 N.3   2472  UNL2472    -0.3437
   9886 H          30.1906   21.9597    9.9367 H     2472  UNL2472     0.1146
   9887 H          31.3579   22.5716   10.8918 H     2472  UNL2472     0.1146
   9888 H          31.1198   23.1848    9.4031 H     2472  UNL2472     0.1146
   9889 N          30.6323   22.8315   12.5139 N.3   2473  UNL2473    -0.3437
   9890 H          30.1906   21.9597   12.2254 H     2473  UNL2473     0.1146
   9891 H          31.3579   22.5716   13.1805 H     2473  UNL2473     0.1146
   9892 H          31.1198   23.1848   11.6918 H     2473  UNL2473     0.1146
   9893 N          30.6323   22.6094   14.4693 N.3   2474  UNL2474    -0.3437
   9894 H          30.1906   22.9000   15.3404 H     2474  UNL2474     0.1146
   9895 H          31.3579   23.2990   14.2786 H     2474  UNL2474     0.1146
   9896 H          31.1198   21.7393   14.6782 H     2474  UNL2474     0.1146
   9897 N          30.6323   22.4752   17.1354 N.3   2475  UNL2475    -0.3437
   9898 H          30.1906   22.9992   16.3813 H     2475  UNL2475     0.1146
   9899 H          31.3579   21.9098   16.6971 H     2475  UNL2475     0.1146
   9900 H          31.1198   23.1633   17.7075 H     2475  UNL2475     0.1146
   9901 N          30.7624   22.6094   19.5566 N.3   2476  UNL2476    -0.3437
   9902 H          31.7247   22.9000   19.3891 H     2476  UNL2476     0.1146
   9903 H          30.1754   23.2990   19.0894 H     2476  UNL2476     0.1146
   9904 H          30.6380   21.7393   19.0410 H     2476  UNL2476     0.1146
   9905 N          30.5958   22.5165   21.4152 N.3   2477  UNL2477    -0.3437
   9906 H          30.7236   22.1333   22.3508 H     2477  UNL2477     0.1146
   9907 H          30.5007   23.5240   21.5350 H     2477  UNL2477     0.1146
   9908 H          31.4804   22.3737   20.9300 H     2477  UNL2477     0.1146
   9909 N          30.5958   22.5165   23.7040 N.3   2478  UNL2478    -0.3437
   9910 H          30.7236   22.1333   24.6395 H     2478  UNL2478     0.1146
   9911 H          30.5007   23.5240   23.8237 H     2478  UNL2478     0.1146
   9912 H          31.4804   22.3737   23.2187 H     2478  UNL2478     0.1146
   9913 N          30.6323   22.8315   26.2462 N.3   2479  UNL2479    -0.3437
   9914 H          30.1906   21.9597   25.9577 H     2479  UNL2479     0.1146
   9915 H          31.3579   22.5716   26.9128 H     2479  UNL2479     0.1146
   9916 H          31.1198   23.1848   25.4241 H     2479  UNL2479     0.1146
   9917 N          30.7624   20.6094   29.7114 N.3   2480  UNL2480    -0.3437
   9918 H          31.7247   20.9000   29.5440 H     2480  UNL2480     0.1146
   9919 H          30.1754   21.2990   29.2443 H     2480  UNL2480     0.1146
   9920 H          30.6380   19.7393   29.1959 H     2480  UNL2480     0.1146
   9921 N          30.5958   24.9603    0.8168 N.3   2481  UNL2481    -0.3437
   9922 H          30.7236   24.5771    1.7523 H     2481  UNL2481     0.1146
   9923 H          30.5007   25.9678    0.9365 H     2481  UNL2481     0.1146
   9924 H          31.4804   24.8175    0.3316 H     2481  UNL2481     0.1146
   9925 N          30.5958   24.9603    3.1055 N.3   2482  UNL2482    -0.3437
   9926 H          30.7236   24.5771    4.0410 H     2482  UNL2482     0.1146
   9927 H          30.5007   25.9678    3.2252 H     2482  UNL2482     0.1146
   9928 H          31.4804   24.8175    2.6203 H     2482  UNL2482     0.1146
   9929 N          30.6323   24.9191    5.6918 N.3   2483  UNL2483    -0.3437
   9930 H          30.1906   25.4430    4.9377 H     2483  UNL2483     0.1146
   9931 H          31.3579   24.3536    5.2535 H     2483  UNL2483     0.1146
   9932 H          31.1198   25.6071    6.2639 H     2483  UNL2483     0.1146
   9933 N          30.6323   25.2753    7.9365 N.3   2484  UNL2484    -0.3437
   9934 H          30.1906   24.4035    7.6479 H     2484  UNL2484     0.1146
   9935 H          31.3579   25.0154    8.6031 H     2484  UNL2484     0.1146
   9936 H          31.1198   25.6286    7.1144 H     2484  UNL2484     0.1146
   9937 N          30.6323   25.0532    9.8918 N.3   2485  UNL2485    -0.3437
   9938 H          30.1906   25.3438   10.7629 H     2485  UNL2485     0.1146
   9939 H          31.3579   25.7428    9.7011 H     2485  UNL2485     0.1146
   9940 H          31.1198   24.1831   10.1007 H     2485  UNL2485     0.1146
   9941 N          30.6323   25.0532   12.1806 N.3   2486  UNL2486    -0.3437
   9942 H          30.1906   25.3438   13.0517 H     2486  UNL2486     0.1146
   9943 H          31.3579   25.7428   11.9899 H     2486  UNL2486     0.1146
   9944 H          31.1198   24.1831   12.3895 H     2486  UNL2486     0.1146
   9945 N          30.6323   24.9191   14.8467 N.3   2487  UNL2487    -0.3437
   9946 H          30.1906   25.4430   14.0926 H     2487  UNL2487     0.1146
   9947 H          31.3579   24.3536   14.4084 H     2487  UNL2487     0.1146
   9948 H          31.1198   25.6071   15.4188 H     2487  UNL2487     0.1146
   9949 N          30.6323   25.2753   17.0913 N.3   2488  UNL2488    -0.3437
   9950 H          30.1906   24.4035   16.8028 H     2488  UNL2488     0.1146
   9951 H          31.3579   25.0154   17.7579 H     2488  UNL2488     0.1146
   9952 H          31.1198   25.6286   16.2692 H     2488  UNL2488     0.1146
   9953 N          30.8579   25.1541   18.9846 N.3   2489  UNL2489    -0.3437
   9954 H          29.9480   24.7401   19.1826 H     2489  UNL2489     0.1146
   9955 H          30.9450   25.9536   19.6104 H     2489  UNL2489     0.1146
   9956 H          31.5497   24.4750   19.2986 H     2489  UNL2489     0.1146
   9957 N          30.6323   25.0532   21.3354 N.3   2490  UNL2490    -0.3437
   9958 H          30.1906   25.3438   22.2065 H     2490  UNL2490     0.1146
   9959 H          31.3579   25.7428   21.1447 H     2490  UNL2490     0.1146
   9960 H          31.1198   24.1831   21.5443 H     2490  UNL2490     0.1146
   9961 N          30.8389   25.2686   23.6187 N.3   2491  UNL2491    -0.3437
   9962 H          30.2174   25.5914   24.3589 H     2491  UNL2491     0.1146
   9963 H          31.7450   25.1162   24.0592 H     2491  UNL2491     0.1146
   9964 H          30.4992   24.3465   23.3490 H     2491  UNL2491     0.1146
   9965 N          30.8389   25.2686   25.9074 N.3   2492  UNL2492    -0.3437
   9966 H          30.2174   25.5914   26.6476 H     2492  UNL2492     0.1146
   9967 H          31.7450   25.1162   26.3480 H     2492  UNL2492     0.1146
   9968 H          30.4992   24.3465   25.6377 H     2492  UNL2492     0.1146
   9969 N          30.7624   23.0532   28.7114 N.3   2493  UNL2493    -0.3437
   9970 H          31.7247   23.3438   28.5440 H     2493  UNL2493     0.1146
   9971 H          30.1754   23.7428   28.2443 H     2493  UNL2493     0.1146
   9972 H          30.6380   22.1831   28.1959 H     2493  UNL2493     0.1146
   9973 N          30.6323   27.4970    0.7370 N.3   2494  UNL2494    -0.3437
   9974 H          30.1906   27.7876    1.6081 H     2494  UNL2494     0.1146
   9975 H          31.3579   28.1866    0.5463 H     2494  UNL2494     0.1146
   9976 H          31.1198   26.6269    0.9459 H     2494  UNL2494     0.1146
   9977 N          30.6323   27.4970    3.0257 N.3   2495  UNL2495    -0.3437
   9978 H          30.1906   27.7876    3.8968 H     2495  UNL2495     0.1146
   9979 H          31.3579   28.1866    2.8350 H     2495  UNL2495     0.1146
   9980 H          31.1198   26.6269    3.2346 H     2495  UNL2495     0.1146
   9981 N          30.6323   27.4970    5.3144 N.3   2496  UNL2496    -0.3437
   9982 H          30.1906   27.7876    6.1855 H     2496  UNL2496     0.1146
   9983 H          31.3579   28.1866    5.1237 H     2496  UNL2496     0.1146
   9984 H          31.1198   26.6269    5.5233 H     2496  UNL2496     0.1146
   9985 N          30.6323   27.4970    7.6031 N.3   2497  UNL2497    -0.3437
   9986 H          30.1906   27.7876    8.4742 H     2497  UNL2497     0.1146
   9987 H          31.3579   28.1866    7.4124 H     2497  UNL2497     0.1146
   9988 H          31.1198   26.6269    7.8120 H     2497  UNL2497     0.1146
   9989 N          30.6323   27.3629   10.2693 N.3   2498  UNL2498    -0.3437
   9990 H          30.1906   27.8868    9.5151 H     2498  UNL2498     0.1146
   9991 H          31.3579   26.7974    9.8309 H     2498  UNL2498     0.1146
   9992 H          31.1198   28.0509   10.8413 H     2498  UNL2498     0.1146
   9993 N          30.7624   27.4970   12.6904 N.3   2499  UNL2499    -0.3437
   9994 H          31.7247   27.7876   12.5230 H     2499  UNL2499     0.1146
   9995 H          30.1754   28.1866   12.2232 H     2499  UNL2499     0.1146
   9996 H          30.6380   26.6269   12.1749 H     2499  UNL2499     0.1146
   9997 N          30.6323   27.4970   14.4693 N.3   2500  UNL2500    -0.3437
   9998 H          30.1906   27.7876   15.3404 H     2500  UNL2500     0.1146
   9999 H          31.3579   28.1866   14.2786 H     2500  UNL2500     0.1146
  10000 H          31.1198   26.6269   14.6782 H     2500  UNL2500     0.1146
  10001 N          30.6323   27.4970   16.7580 N.3   2501  UNL2501    -0.3437
  10002 H          30.1906   27.7876   17.6291 H     2501  UNL2501     0.1146
  10003 H          31.3579   28.1866   16.5673 H     2501  UNL2501     0.1146
  10004 H          31.1198   26.6269   16.9669 H     2501  UNL2501     0.1146
  10005 N          30.8389   27.7124   19.0413 N.3   2502  UNL2502    -0.3437
  10006 H          30.2174   28.0352   19.7815 H     2502  UNL2502     0.1146
  10007 H          31.7450   27.5600   19.4818 H     2502  UNL2502     0.1146
  10008 H          30.4992   26.7903   18.7716 H     2502  UNL2502     0.1146
  10009 N          30.8389   27.7124   21.3300 N.3   2503  UNL2503    -0.3437
  10010 H          30.2174   28.0352   22.0702 H     2503  UNL2503     0.1146
  10011 H          31.7450   27.5600   21.7705 H     2503  UNL2503     0.1146
  10012 H          30.4992   26.7903   21.0603 H     2503  UNL2503     0.1146
  10013 N          30.6323   27.4970   23.6241 N.3   2504  UNL2504    -0.3437
  10014 H          30.1906   27.7876   24.4952 H     2504  UNL2504     0.1146
  10015 H          31.3579   28.1866   23.4334 H     2504  UNL2504     0.1146
  10016 H          31.1198   26.6269   23.8330 H     2504  UNL2504     0.1146
  10017 N          30.8389   27.7124   25.9074 N.3   2505  UNL2505    -0.3437
  10018 H          30.2174   28.0352   26.6476 H     2505  UNL2505     0.1146
  10019 H          31.7450   27.5600   26.3480 H     2505  UNL2505     0.1146
  10020 H          30.4992   26.7903   25.6377 H     2505  UNL2505     0.1146
  10021 N          30.6323   25.7191   28.5349 N.3   2506  UNL2506    -0.3437
  10022 H          30.1906   24.8473   28.2464 H     2506  UNL2506     0.1146
  10023 H          31.3579   25.4592   29.2015 H     2506  UNL2506     0.1146
  10024 H          31.1198   26.0724   27.7128 H     2506  UNL2506     0.1146
  10025 N          30.6323   30.9408    0.7370 N.3   2507  UNL2507    -0.3437
  10026 H          30.1906   31.2314    1.6081 H     2507  UNL2507     0.1146
  10027 H          31.3579   31.6304    0.5463 H     2507  UNL2507     0.1146
  10028 H          31.1198   30.0707    0.9459 H     2507  UNL2507     0.1146
  10029 N          30.6323   30.9408    3.0257 N.3   2508  UNL2508    -0.3437
  10030 H          30.1906   31.2314    3.8968 H     2508  UNL2508     0.1146
  10031 H          31.3579   31.6304    2.8350 H     2508  UNL2508     0.1146
  10032 H          31.1198   30.0707    3.2346 H     2508  UNL2508     0.1146
  10033 N          30.6323   30.9408    5.3144 N.3   2509  UNL2509    -0.3437
  10034 H          30.1906   31.2314    6.1855 H     2509  UNL2509     0.1146
  10035 H          31.3579   31.6304    5.1237 H     2509  UNL2509     0.1146
  10036 H          31.1198   30.0707    5.5233 H     2509  UNL2509     0.1146
  10037 N          30.8222   30.7107    7.6806 N.3   2510  UNL2510    -0.3437
  10038 H          29.8876   31.0854    7.8375 H     2510  UNL2510     0.1146
  10039 H          31.3360   31.4367    7.1833 H     2510  UNL2510     0.1146
  10040 H          31.2548   30.6405    8.6005 H     2510  UNL2510     0.1146
  10041 N          30.6323   30.9408    9.8918 N.3   2511  UNL2511    -0.3437
  10042 H          30.1906   31.2314   10.7629 H     2511  UNL2511     0.1146
  10043 H          31.3579   31.6304    9.7011 H     2511  UNL2511     0.1146
  10044 H          31.1198   30.0707   10.1007 H     2511  UNL2511     0.1146
  10045 N          30.6323   30.9408   12.1806 N.3   2512  UNL2512    -0.3437
  10046 H          30.1906   31.2314   13.0517 H     2512  UNL2512     0.1146
  10047 H          31.3579   31.6304   11.9899 H     2512  UNL2512     0.1146
  10048 H          31.1198   30.0707   12.3895 H     2512  UNL2512     0.1146
  10049 N          30.7624   29.9408   14.9792 N.3   2513  UNL2513    -0.3437
  10050 H          31.7247   30.2314   14.8117 H     2513  UNL2513     0.1146
  10051 H          30.1754   30.6304   14.5120 H     2513  UNL2513     0.1146
  10052 H          30.6380   29.0707   14.4636 H     2513  UNL2513     0.1146
  10053 N          30.6323   30.9408   16.7580 N.3   2514  UNL2514    -0.3437
  10054 H          30.1906   31.2314   17.6291 H     2514  UNL2514     0.1146
  10055 H          31.3579   31.6304   16.5673 H     2514  UNL2514     0.1146
  10056 H          31.1198   30.0707   16.9669 H     2514  UNL2514     0.1146
  10057 N          30.6323   30.9408   19.0467 N.3   2515  UNL2515    -0.3437
  10058 H          30.1906   31.2314   19.9178 H     2515  UNL2515     0.1146
  10059 H          31.3579   31.6304   18.8560 H     2515  UNL2515     0.1146
  10060 H          31.1198   30.0707   19.2556 H     2515  UNL2515     0.1146
  10061 N          30.6323   30.9408   21.3354 N.3   2516  UNL2516    -0.3437
  10062 H          30.1906   31.2314   22.2065 H     2516  UNL2516     0.1146
  10063 H          31.3579   31.6304   21.1447 H     2516  UNL2516     0.1146
  10064 H          31.1198   30.0707   21.5443 H     2516  UNL2516     0.1146
  10065 N          30.7624   29.9408   24.1340 N.3   2517  UNL2517    -0.3437
  10066 H          31.7247   30.2314   23.9666 H     2517  UNL2517     0.1146
  10067 H          30.1754   30.6304   23.6668 H     2517  UNL2517     0.1146
  10068 H          30.6380   29.0707   23.6184 H     2517  UNL2517     0.1146
  10069 N          30.6323   30.9408   25.9128 N.3   2518  UNL2518    -0.3437
  10070 H          30.1906   31.2314   26.7840 H     2518  UNL2518     0.1146
  10071 H          31.3579   31.6304   25.7221 H     2518  UNL2518     0.1146
  10072 H          31.1198   30.0707   26.1217 H     2518  UNL2518     0.1146
  10073 N          30.6323   29.9408   28.2016 N.3   2519  UNL2519    -0.3437
  10074 H          30.1906   30.2314   29.0727 H     2519  UNL2519     0.1146
  10075 H          31.3579   30.6304   28.0109 H     2519  UNL2519     0.1146
  10076 H          31.1198   29.0707   28.4105 H     2519  UNL2519     0.1146
  10077 N          32.8264    0.6151   -1.2630 N.3   2520  UNL2520    -0.3437
  10078 H          32.3847    0.9057   -0.3919 H     2520  UNL2520     0.1146
  10079 H          33.5520    1.3047   -1.4537 H     2520  UNL2520     0.1146
  10080 H          33.3139   -0.2550   -1.0541 H     2520  UNL2520     0.1146
  10081 N          32.8049    0.4424    1.2840 N.3   2521  UNL2521    -0.3437
  10082 H          32.8633    1.1007    2.0596 H     2521  UNL2521     0.1146
  10083 H          32.6800    1.0071    0.4450 H     2521  UNL2521     0.1146
  10084 H          33.7289    0.0204    1.2035 H     2521  UNL2521     0.1146
  10085 N          32.8264    0.8372    3.6477 N.3   2522  UNL2522    -0.3437
  10086 H          32.3847   -0.0346    3.3592 H     2522  UNL2522     0.1146
  10087 H          33.5520    0.5773    4.3143 H     2522  UNL2522     0.1146
  10088 H          33.3139    1.1906    2.8256 H     2522  UNL2522     0.1146
  10089 N          32.8264    0.8372    5.9365 N.3   2523  UNL2523    -0.3437
  10090 H          32.3847   -0.0346    5.6479 H     2523  UNL2523     0.1146
  10091 H          33.5520    0.5773    6.6031 H     2523  UNL2523     0.1146
  10092 H          33.3139    1.1906    5.1144 H     2523  UNL2523     0.1146
  10093 N          32.8264    0.8372    8.2252 N.3   2524  UNL2524    -0.3437
  10094 H          32.3847   -0.0346    7.9367 H     2524  UNL2524     0.1146
  10095 H          33.5520    0.5773    8.8918 H     2524  UNL2524     0.1146
  10096 H          33.3139    1.1906    7.4031 H     2524  UNL2524     0.1146
  10097 N          33.0330    0.8305   12.1751 N.3   2525  UNL2525    -0.3437
  10098 H          32.4116    1.1534   12.9153 H     2525  UNL2525     0.1146
  10099 H          33.9392    0.6782   12.6157 H     2525  UNL2525     0.1146
  10100 H          32.6934   -0.0916   11.9054 H     2525  UNL2525     0.1146
  10101 N          33.0330    0.8305   14.4638 N.3   2526  UNL2526    -0.3437
  10102 H          32.4116    1.1534   15.2040 H     2526  UNL2526     0.1146
  10103 H          33.9392    0.6782   14.9044 H     2526  UNL2526     0.1146
  10104 H          32.6934   -0.0916   14.1942 H     2526  UNL2526     0.1146
  10105 N          33.0330    0.8305   16.7525 N.3   2527  UNL2527    -0.3437
  10106 H          32.4116    1.1534   17.4928 H     2527  UNL2527     0.1146
  10107 H          33.9392    0.6782   17.1931 H     2527  UNL2527     0.1146
  10108 H          32.6934   -0.0916   16.4829 H     2527  UNL2527     0.1146
  10109 N          33.0330    0.8305   19.0413 N.3   2528  UNL2528    -0.3437
  10110 H          32.4116    1.1534   19.7815 H     2528  UNL2528     0.1146
  10111 H          33.9392    0.6782   19.4818 H     2528  UNL2528     0.1146
  10112 H          32.6934   -0.0916   18.7716 H     2528  UNL2528     0.1146
  10113 N          32.8264    0.6151   21.3354 N.3   2529  UNL2529    -0.3437
  10114 H          32.3847    0.9057   22.2065 H     2529  UNL2529     0.1146
  10115 H          33.5520    1.3047   21.1447 H     2529  UNL2529     0.1146
  10116 H          33.3139   -0.2550   21.5443 H     2529  UNL2529     0.1146
  10117 N          33.0330    0.8305   23.6187 N.3   2530  UNL2530    -0.3437
  10118 H          32.4116    1.1534   24.3589 H     2530  UNL2530     0.1146
  10119 H          33.9392    0.6782   24.0592 H     2530  UNL2530     0.1146
  10120 H          32.6934   -0.0916   23.3490 H     2530  UNL2530     0.1146
  10121 N          32.7900    0.5223   25.9927 N.3   2531  UNL2531    -0.3437
  10122 H          32.9177    0.1391   26.9282 H     2531  UNL2531     0.1146
  10123 H          32.6949    1.5298   26.1124 H     2531  UNL2531     0.1146
  10124 H          33.6746    0.3794   25.5074 H     2531  UNL2531     0.1146
  10125 N          32.7426    0.6321   29.3203 N.3   2532  UNL2532    -0.3437
  10126 H          32.8803    0.0386   30.1370 H     2532  UNL2532     0.1146
  10127 H          33.0218    1.5701   29.6044 H     2532  UNL2532     0.1146
  10128 H          33.4324    0.3298   28.6338 H     2532  UNL2532     0.1146
  10129 N          32.8264    3.2810    1.0703 N.3   2533  UNL2533    -0.3437
  10130 H          32.3847    2.4092    0.7818 H     2533  UNL2533     0.1146
  10131 H          33.5520    3.0211    1.7369 H     2533  UNL2533     0.1146
  10132 H          33.3139    3.6344    0.2482 H     2533  UNL2533     0.1146
  10133 N          32.8264    3.2810    3.3590 N.3   2534  UNL2534    -0.3437
  10134 H          32.3847    2.4092    3.0705 H     2534  UNL2534     0.1146
  10135 H          33.5520    3.0211    4.0256 H     2534  UNL2534     0.1146
  10136 H          33.3139    3.6344    2.5369 H     2534  UNL2534     0.1146
  10137 N          32.8264    3.2810    5.6477 N.3   2535  UNL2535    -0.3437
  10138 H          32.3847    2.4092    5.3592 H     2535  UNL2535     0.1146
  10139 H          33.5520    3.0211    6.3143 H     2535  UNL2535     0.1146
  10140 H          33.3139    3.6344    4.8256 H     2535  UNL2535     0.1146
  10141 N          32.8264    3.2810    7.9365 N.3   2536  UNL2536    -0.3437
  10142 H          32.3847    2.4092    7.6479 H     2536  UNL2536     0.1146
  10143 H          33.5520    3.0211    8.6031 H     2536  UNL2536     0.1146
  10144 H          33.3139    3.6344    7.1144 H     2536  UNL2536     0.1146
  10145 N          32.8264    3.0589    9.8918 N.3   2537  UNL2537    -0.3437
  10146 H          32.3847    3.3495   10.7629 H     2537  UNL2537     0.1146
  10147 H          33.5520    3.7485    9.7011 H     2537  UNL2537     0.1146
  10148 H          33.3139    2.1888   10.1007 H     2537  UNL2537     0.1146
  10149 N          32.8264    3.0589   12.1806 N.3   2538  UNL2538    -0.3437
  10150 H          32.3847    3.3495   13.0517 H     2538  UNL2538     0.1146
  10151 H          33.5520    3.7485   11.9899 H     2538  UNL2538     0.1146
  10152 H          33.3139    2.1888   12.3895 H     2538  UNL2538     0.1146
  10153 N          32.8264    2.9248   14.8467 N.3   2539  UNL2539    -0.3437
  10154 H          32.3847    3.4488   14.0926 H     2539  UNL2539     0.1146
  10155 H          33.5520    2.3593   14.4084 H     2539  UNL2539     0.1146
  10156 H          33.3139    3.6129   15.4188 H     2539  UNL2539     0.1146
  10157 N          32.9566    3.0589   17.2679 N.3   2540  UNL2540    -0.3437
  10158 H          33.9188    3.3495   17.1004 H     2540  UNL2540     0.1146
  10159 H          32.3696    3.7485   16.8007 H     2540  UNL2540     0.1146
  10160 H          32.8322    2.1888   16.7523 H     2540  UNL2540     0.1146
  10161 N          32.8264    3.0589   19.0467 N.3   2541  UNL2541    -0.3437
  10162 H          32.3847    3.3495   19.9178 H     2541  UNL2541     0.1146
  10163 H          33.5520    3.7485   18.8560 H     2541  UNL2541     0.1146
  10164 H          33.3139    2.1888   19.2556 H     2541  UNL2541     0.1146
  10165 N          32.8264    2.9248   21.7128 N.3   2542  UNL2542    -0.3437
  10166 H          32.3847    3.4488   20.9587 H     2542  UNL2542     0.1146
  10167 H          33.5520    2.3593   21.2745 H     2542  UNL2542     0.1146
  10168 H          33.3139    3.6129   22.2849 H     2542  UNL2542     0.1146
  10169 N          32.8264    3.2810   23.9575 N.3   2543  UNL2543    -0.3437
  10170 H          32.3847    2.4092   23.6690 H     2543  UNL2543     0.1146
  10171 H          33.5520    3.0211   24.6241 H     2543  UNL2543     0.1146
  10172 H          33.3139    3.6344   23.1354 H     2543  UNL2543     0.1146
  10173 N          32.8264    3.2810   26.2462 N.3   2544  UNL2544    -0.3437
  10174 H          32.3847    2.4092   25.9577 H     2544  UNL2544     0.1146
  10175 H          33.5520    3.0211   26.9128 H     2544  UNL2544     0.1146
  10176 H          33.3139    3.6344   25.4241 H     2544  UNL2544     0.1146
  10177 N          30.8264    3.0589   28.2016 N.3   2545  UNL2545    -0.3437
  10178 H          30.3847    3.3495   29.0727 H     2545  UNL2545     0.1146
  10179 H          31.5520    3.7485   28.0109 H     2545  UNL2545     0.1146
  10180 H          31.3139    2.1888   28.4105 H     2545  UNL2545     0.1146
  10181 N          32.8264    5.5027    0.7370 N.3   2546  UNL2546    -0.3437
  10182 H          32.3847    5.7933    1.6081 H     2546  UNL2546     0.1146
  10183 H          33.5520    6.1923    0.5463 H     2546  UNL2546     0.1146
  10184 H          33.3139    4.6326    0.9459 H     2546  UNL2546     0.1146
  10185 N          32.8264    5.5027    3.0257 N.3   2547  UNL2547    -0.3437
  10186 H          32.3847    5.7933    3.8968 H     2547  UNL2547     0.1146
  10187 H          33.5520    6.1923    2.8350 H     2547  UNL2547     0.1146
  10188 H          33.3139    4.6326    3.2346 H     2547  UNL2547     0.1146
  10189 N          32.8264    5.5027    5.3144 N.3   2548  UNL2548    -0.3437
  10190 H          32.3847    5.7933    6.1855 H     2548  UNL2548     0.1146
  10191 H          33.5520    6.1923    5.1237 H     2548  UNL2548     0.1146
  10192 H          33.3139    4.6326    5.5233 H     2548  UNL2548     0.1146
  10193 N          32.8264    5.5027    7.6031 N.3   2549  UNL2549    -0.3437
  10194 H          32.3847    5.7933    8.4742 H     2549  UNL2549     0.1146
  10195 H          33.5520    6.1923    7.4124 H     2549  UNL2549     0.1146
  10196 H          33.3139    4.6326    7.8120 H     2549  UNL2549     0.1146
  10197 N          32.8264    5.3686   10.2693 N.3   2550  UNL2550    -0.3437
  10198 H          32.3847    5.8926    9.5151 H     2550  UNL2550     0.1146
  10199 H          33.5520    4.8031    9.8309 H     2550  UNL2550     0.1146
  10200 H          33.3139    6.0567   10.8413 H     2550  UNL2550     0.1146
  10201 N          32.9566    5.5027   12.6904 N.3   2551  UNL2551    -0.3437
  10202 H          33.9188    5.7933   12.5230 H     2551  UNL2551     0.1146
  10203 H          32.3696    6.1923   12.2232 H     2551  UNL2551     0.1146
  10204 H          32.8322    4.6326   12.1749 H     2551  UNL2551     0.1146
  10205 N          32.8264    5.5027   14.4693 N.3   2552  UNL2552    -0.3437
  10206 H          32.3847    5.7933   15.3404 H     2552  UNL2552     0.1146
  10207 H          33.5520    6.1923   14.2786 H     2552  UNL2552     0.1146
  10208 H          33.3139    4.6326   14.6782 H     2552  UNL2552     0.1146
  10209 N          32.8264    5.3686   17.1354 N.3   2553  UNL2553    -0.3437
  10210 H          32.3847    5.8926   16.3813 H     2553  UNL2553     0.1146
  10211 H          33.5520    4.8031   16.6971 H     2553  UNL2553     0.1146
  10212 H          33.3139    6.0567   17.7075 H     2553  UNL2553     0.1146
  10213 N          33.0520    5.6036   18.9846 N.3   2554  UNL2554    -0.3437
  10214 H          32.1422    5.1897   19.1826 H     2554  UNL2554     0.1146
  10215 H          33.1391    6.4031   19.6104 H     2554  UNL2554     0.1146
  10216 H          33.7439    4.9246   19.2986 H     2554  UNL2554     0.1146
  10217 N          32.8264    5.5027   21.3354 N.3   2555  UNL2555    -0.3437
  10218 H          32.3847    5.7933   22.2065 H     2555  UNL2555     0.1146
  10219 H          33.5520    6.1923   21.1447 H     2555  UNL2555     0.1146
  10220 H          33.3139    4.6326   21.5443 H     2555  UNL2555     0.1146
  10221 N          32.8264    5.5027   23.6241 N.3   2556  UNL2556    -0.3437
  10222 H          32.3847    5.7933   24.4952 H     2556  UNL2556     0.1146
  10223 H          33.5520    6.1923   23.4334 H     2556  UNL2556     0.1146
  10224 H          33.3139    4.6326   23.8330 H     2556  UNL2556     0.1146
  10225 N          32.8264    5.5027   25.9128 N.3   2557  UNL2557    -0.3437
  10226 H          32.3847    5.7933   26.7840 H     2557  UNL2557     0.1146
  10227 H          33.5520    6.1923   25.7221 H     2557  UNL2557     0.1146
  10228 H          33.3139    4.6326   26.1217 H     2557  UNL2557     0.1146
  10229 N          32.7426    5.5197   29.3203 N.3   2558  UNL2558    -0.3437
  10230 H          32.8803    4.9262   30.1370 H     2558  UNL2558     0.1146
  10231 H          33.0218    6.4577   29.6044 H     2558  UNL2558     0.1146
  10232 H          33.4324    5.2174   28.6338 H     2558  UNL2558     0.1146
  10233 N          32.8264    8.1686    1.0703 N.3   2559  UNL2559    -0.3437
  10234 H          32.3847    7.2968    0.7818 H     2559  UNL2559     0.1146
  10235 H          33.5520    7.9087    1.7369 H     2559  UNL2559     0.1146
  10236 H          33.3139    8.5220    0.2482 H     2559  UNL2559     0.1146
  10237 N          32.8264    7.9465    3.0257 N.3   2560  UNL2560    -0.3437
  10238 H          32.3847    8.2371    3.8968 H     2560  UNL2560     0.1146
  10239 H          33.5520    8.6361    2.8350 H     2560  UNL2560     0.1146
  10240 H          33.3139    7.0764    3.2346 H     2560  UNL2560     0.1146
  10241 N          32.8264    7.8124    5.6918 N.3   2561  UNL2561    -0.3437
  10242 H          32.3847    8.3364    4.9377 H     2561  UNL2561     0.1146
  10243 H          33.5520    7.2469    5.2535 H     2561  UNL2561     0.1146
  10244 H          33.3139    8.5005    6.2639 H     2561  UNL2561     0.1146
  10245 N          32.8264    8.1686    7.9365 N.3   2562  UNL2562    -0.3437
  10246 H          32.3847    7.2968    7.6479 H     2562  UNL2562     0.1146
  10247 H          33.5520    7.9087    8.6031 H     2562  UNL2562     0.1146
  10248 H          33.3139    8.5220    7.1144 H     2562  UNL2562     0.1146
  10249 N          32.8264    8.1686   10.2252 N.3   2563  UNL2563    -0.3437
  10250 H          32.3847    7.2968    9.9367 H     2563  UNL2563     0.1146
  10251 H          33.5520    7.9087   10.8918 H     2563  UNL2563     0.1146
  10252 H          33.3139    8.5220    9.4031 H     2563  UNL2563     0.1146
  10253 N          32.8264    7.9465   12.1806 N.3   2564  UNL2564    -0.3437
  10254 H          32.3847    8.2371   13.0517 H     2564  UNL2564     0.1146
  10255 H          33.5520    8.6361   11.9899 H     2564  UNL2564     0.1146
  10256 H          33.3139    7.0764   12.3895 H     2564  UNL2564     0.1146
  10257 N          32.8264    7.8124   14.8467 N.3   2565  UNL2565    -0.3437
  10258 H          32.3847    8.3364   14.0926 H     2565  UNL2565     0.1146
  10259 H          33.5520    7.2469   14.4084 H     2565  UNL2565     0.1146
  10260 H          33.3139    8.5005   15.4188 H     2565  UNL2565     0.1146
  10261 N          32.9566    7.9465   17.2679 N.3   2566  UNL2566    -0.3437
  10262 H          33.9188    8.2371   17.1004 H     2566  UNL2566     0.1146
  10263 H          32.3696    8.6361   16.8007 H     2566  UNL2566     0.1146
  10264 H          32.8322    7.0764   16.7523 H     2566  UNL2566     0.1146
  10265 N          32.9566    7.9465   19.5566 N.3   2567  UNL2567    -0.3437
  10266 H          33.9188    8.2371   19.3891 H     2567  UNL2567     0.1146
  10267 H          32.3696    8.6361   19.0894 H     2567  UNL2567     0.1146
  10268 H          32.8322    7.0764   19.0410 H     2567  UNL2567     0.1146
  10269 N          32.7900    7.8537   21.4152 N.3   2568  UNL2568    -0.3437
  10270 H          32.9177    7.4705   22.3508 H     2568  UNL2568     0.1146
  10271 H          32.6949    8.8612   21.5350 H     2568  UNL2568     0.1146
  10272 H          33.6746    7.7108   20.9300 H     2568  UNL2568     0.1146
  10273 N          32.7900    7.8537   23.7040 N.3   2569  UNL2569    -0.3437
  10274 H          32.9177    7.4705   24.6395 H     2569  UNL2569     0.1146
  10275 H          32.6949    8.8612   23.8237 H     2569  UNL2569     0.1146
  10276 H          33.6746    7.7108   23.2187 H     2569  UNL2569     0.1146
  10277 N          32.8264    8.1686   26.2462 N.3   2570  UNL2570    -0.3437
  10278 H          32.3847    7.2968   25.9577 H     2570  UNL2570     0.1146
  10279 H          33.5520    7.9087   26.9128 H     2570  UNL2570     0.1146
  10280 H          33.3139    8.5220   25.4241 H     2570  UNL2570     0.1146
  10281 N          32.7426    7.9635   29.3203 N.3   2571  UNL2571    -0.3437
  10282 H          32.8803    7.3700   30.1370 H     2571  UNL2571     0.1146
  10283 H          33.0218    8.9015   29.6044 H     2571  UNL2571     0.1146
  10284 H          33.4324    7.6612   28.6338 H     2571  UNL2571     0.1146
  10285 N          32.8264   10.6125    1.0703 N.3   2572  UNL2572    -0.3437
  10286 H          32.3847    9.7407    0.7818 H     2572  UNL2572     0.1146
  10287 H          33.5520   10.3525    1.7369 H     2572  UNL2572     0.1146
  10288 H          33.3139   10.9658    0.2482 H     2572  UNL2572     0.1146
  10289 N          32.7900   10.2975    3.1055 N.3   2573  UNL2573    -0.3437
  10290 H          32.9177    9.9143    4.0410 H     2573  UNL2573     0.1146
  10291 H          32.6949   11.3050    3.2252 H     2573  UNL2573     0.1146
  10292 H          33.6746   10.1547    2.6203 H     2573  UNL2573     0.1146
  10293 N          32.8264   10.2562    5.6918 N.3   2574  UNL2574    -0.3437
  10294 H          32.3847   10.7802    4.9377 H     2574  UNL2574     0.1146
  10295 H          33.5520    9.6907    5.2535 H     2574  UNL2574     0.1146
  10296 H          33.3139   10.9443    6.2639 H     2574  UNL2574     0.1146
  10297 N          32.9566   10.3903    8.1130 N.3   2575  UNL2575    -0.3437
  10298 H          33.9188   10.6809    7.9456 H     2575  UNL2575     0.1146
  10299 H          32.3696   11.0799    7.6458 H     2575  UNL2575     0.1146
  10300 H          32.8322    9.5202    7.5974 H     2575  UNL2575     0.1146
  10301 N          32.8264   10.6125   10.2252 N.3   2576  UNL2576    -0.3437
  10302 H          32.3847    9.7407    9.9367 H     2576  UNL2576     0.1146
  10303 H          33.5520   10.3525   10.8918 H     2576  UNL2576     0.1146
  10304 H          33.3139   10.9658    9.4031 H     2576  UNL2576     0.1146
  10305 N          32.8264   10.6125   12.5139 N.3   2577  UNL2577    -0.3437
  10306 H          32.3847    9.7407   12.2254 H     2577  UNL2577     0.1146
  10307 H          33.5520   10.3525   13.1805 H     2577  UNL2577     0.1146
  10308 H          33.3139   10.9658   11.6918 H     2577  UNL2577     0.1146
  10309 N          32.8264   10.3903   14.4693 N.3   2578  UNL2578    -0.3437
  10310 H          32.3847   10.6809   15.3404 H     2578  UNL2578     0.1146
  10311 H          33.5520   11.0799   14.2786 H     2578  UNL2578     0.1146
  10312 H          33.3139    9.5202   14.6782 H     2578  UNL2578     0.1146
  10313 N          32.8264   10.6125   17.0913 N.3   2579  UNL2579    -0.3437
  10314 H          32.3847    9.7407   16.8028 H     2579  UNL2579     0.1146
  10315 H          33.5520   10.3525   17.7579 H     2579  UNL2579     0.1146
  10316 H          33.3139   10.9658   16.2692 H     2579  UNL2579     0.1146
  10317 N          32.8264   10.6125   19.3800 N.3   2580  UNL2580    -0.3437
  10318 H          32.3847    9.7407   19.0915 H     2580  UNL2580     0.1146
  10319 H          33.5520   10.3525   20.0466 H     2580  UNL2580     0.1146
  10320 H          33.3139   10.9658   18.5579 H     2580  UNL2580     0.1146
  10321 N          32.8264   10.3903   21.3354 N.3   2581  UNL2581    -0.3437
  10322 H          32.3847   10.6809   22.2065 H     2581  UNL2581     0.1146
  10323 H          33.5520   11.0799   21.1447 H     2581  UNL2581     0.1146
  10324 H          33.3139    9.5202   21.5443 H     2581  UNL2581     0.1146
  10325 N          32.8264   10.2562   24.0016 N.3   2582  UNL2582    -0.3437
  10326 H          32.3847   10.7802   23.2474 H     2582  UNL2582     0.1146
  10327 H          33.5520    9.6907   23.5632 H     2582  UNL2582     0.1146
  10328 H          33.3139   10.9443   24.5736 H     2582  UNL2582     0.1146
  10329 N          32.9566   10.3903   26.4227 N.3   2583  UNL2583    -0.3437
  10330 H          33.9188   10.6809   26.2553 H     2583  UNL2583     0.1146
  10331 H          32.3696   11.0799   25.9555 H     2583  UNL2583     0.1146
  10332 H          32.8322    9.5202   25.9071 H     2583  UNL2583     0.1146
  10333 N          32.7426   10.4073   29.3203 N.3   2584  UNL2584    -0.3437
  10334 H          32.8803    9.8138   30.1370 H     2584  UNL2584     0.1146
  10335 H          33.0218   11.3453   29.6044 H     2584  UNL2584     0.1146
  10336 H          33.4324   10.1050   28.6338 H     2584  UNL2584     0.1146
  10337 N          32.8264   13.0563    1.3590 N.3   2585  UNL2585    -0.3437
  10338 H          32.3847   12.1845    1.0705 H     2585  UNL2585     0.1146
  10339 H          33.5520   12.7963    2.0256 H     2585  UNL2585     0.1146
  10340 H          33.3139   13.4096    0.5369 H     2585  UNL2585     0.1146
  10341 N          32.8264   13.0563    3.6477 N.3   2586  UNL2586    -0.3437
  10342 H          32.3847   12.1845    3.3592 H     2586  UNL2586     0.1146
  10343 H          33.5520   12.7963    4.3143 H     2586  UNL2586     0.1146
  10344 H          33.3139   13.4096    2.8256 H     2586  UNL2586     0.1146
  10345 N          32.7710   13.0203    5.8492 N.3   2587  UNL2587    -0.3437
  10346 H          33.1871   12.8017    6.7534 H     2587  UNL2587     0.1146
  10347 H          33.4950   13.4990    5.3152 H     2587  UNL2587     0.1146
  10348 H          32.6241   12.1257    5.3840 H     2587  UNL2587     0.1146
  10349 N          32.8264   12.7000   10.2693 N.3   2588  UNL2588    -0.3437
  10350 H          32.3847   13.2240    9.5151 H     2588  UNL2588     0.1146
  10351 H          33.5520   12.1345    9.8309 H     2588  UNL2588     0.1146
  10352 H          33.3139   13.3881   10.8413 H     2588  UNL2588     0.1146
  10353 N          32.8264   13.0563   12.5139 N.3   2589  UNL2589    -0.3437
  10354 H          32.3847   12.1845   12.2254 H     2589  UNL2589     0.1146
  10355 H          33.5520   12.7963   13.1805 H     2589  UNL2589     0.1146
  10356 H          33.3139   13.4096   11.6918 H     2589  UNL2589     0.1146
  10357 N          33.0520   12.9350   14.4071 N.3   2590  UNL2590    -0.3437
  10358 H          32.1422   12.5211   14.6052 H     2590  UNL2590     0.1146
  10359 H          33.1391   13.7345   15.0329 H     2590  UNL2590     0.1146
  10360 H          33.7439   12.2560   14.7211 H     2590  UNL2590     0.1146
  10361 N          32.8264   12.7000   17.1354 N.3   2591  UNL2591    -0.3437
  10362 H          32.3847   13.2240   16.3813 H     2591  UNL2591     0.1146
  10363 H          33.5520   12.1345   16.6971 H     2591  UNL2591     0.1146
  10364 H          33.3139   13.3881   17.7075 H     2591  UNL2591     0.1146
  10365 N          32.9566   12.8341   19.5566 N.3   2592  UNL2592    -0.3437
  10366 H          33.9188   13.1247   19.3891 H     2592  UNL2592     0.1146
  10367 H          32.3696   13.5237   19.0894 H     2592  UNL2592     0.1146
  10368 H          32.8322   11.9640   19.0410 H     2592  UNL2592     0.1146
  10369 N          32.8264   12.8341   21.3354 N.3   2593  UNL2593    -0.3437
  10370 H          32.3847   13.1247   22.2065 H     2593  UNL2593     0.1146
  10371 H          33.5520   13.5237   21.1447 H     2593  UNL2593     0.1146
  10372 H          33.3139   11.9640   21.5443 H     2593  UNL2593     0.1146
  10373 N          32.8264   12.7000   24.0016 N.3   2594  UNL2594    -0.3437
  10374 H          32.3847   13.2240   23.2474 H     2594  UNL2594     0.1146
  10375 H          33.5520   12.1345   23.5632 H     2594  UNL2594     0.1146
  10376 H          33.3139   13.3881   24.5736 H     2594  UNL2594     0.1146
  10377 N          32.8264   13.0563   26.2462 N.3   2595  UNL2595    -0.3437
  10378 H          32.3847   12.1845   25.9577 H     2595  UNL2595     0.1146
  10379 H          33.5520   12.7963   26.9128 H     2595  UNL2595     0.1146
  10380 H          33.3139   13.4096   25.4241 H     2595  UNL2595     0.1146
  10381 N          32.7426   12.8512   29.3203 N.3   2596  UNL2596    -0.3437
  10382 H          32.8803   12.2576   30.1370 H     2596  UNL2596     0.1146
  10383 H          33.0218   13.7891   29.6044 H     2596  UNL2596     0.1146
  10384 H          33.4324   12.5488   28.6338 H     2596  UNL2596     0.1146
  10385 N          32.8264   15.5001    1.0703 N.3   2597  UNL2597    -0.3437
  10386 H          32.3847   14.6283    0.7818 H     2597  UNL2597     0.1146
  10387 H          33.5520   15.2401    1.7369 H     2597  UNL2597     0.1146
  10388 H          33.3139   15.8534    0.2482 H     2597  UNL2597     0.1146
  10389 N          32.8264   15.2779    3.0257 N.3   2598  UNL2598    -0.3437
  10390 H          32.3847   15.5685    3.8968 H     2598  UNL2598     0.1146
  10391 H          33.5520   15.9675    2.8350 H     2598  UNL2598     0.1146
  10392 H          33.3139   14.4078    3.2346 H     2598  UNL2598     0.1146
  10393 N          32.8264   15.5001    5.6477 N.3   2599  UNL2599    -0.3437
  10394 H          32.3847   14.6283    5.3592 H     2599  UNL2599     0.1146
  10395 H          33.5520   15.2401    6.3143 H     2599  UNL2599     0.1146
  10396 H          33.3139   15.8534    4.8256 H     2599  UNL2599     0.1146
  10397 N          32.8264   15.5001    7.9365 N.3   2600  UNL2600    -0.3437
  10398 H          32.3847   14.6283    7.6479 H     2600  UNL2600     0.1146
  10399 H          33.5520   15.2401    8.6031 H     2600  UNL2600     0.1146
  10400 H          33.3139   15.8534    7.1144 H     2600  UNL2600     0.1146
  10401 N          32.8264   15.2779    9.8918 N.3   2601  UNL2601    -0.3437
  10402 H          32.3847   15.5685   10.7629 H     2601  UNL2601     0.1146
  10403 H          33.5520   15.9675    9.7011 H     2601  UNL2601     0.1146
  10404 H          33.3139   14.4078   10.1007 H     2601  UNL2601     0.1146
  10405 N          33.0330   15.4934   12.1751 N.3   2602  UNL2602    -0.3437
  10406 H          32.4116   15.8162   12.9153 H     2602  UNL2602     0.1146
  10407 H          33.9392   15.3410   12.6157 H     2602  UNL2602     0.1146
  10408 H          32.6934   14.5713   11.9054 H     2602  UNL2602     0.1146
  10409 N          33.0330   15.4934   14.4638 N.3   2603  UNL2603    -0.3437
  10410 H          32.4116   15.8162   15.2040 H     2603  UNL2603     0.1146
  10411 H          33.9392   15.3410   14.9044 H     2603  UNL2603     0.1146
  10412 H          32.6934   14.5713   14.1942 H     2603  UNL2603     0.1146
  10413 N          32.8264   15.2779   16.7580 N.3   2604  UNL2604    -0.3437
  10414 H          32.3847   15.5685   17.6291 H     2604  UNL2604     0.1146
  10415 H          33.5520   15.9675   16.5673 H     2604  UNL2604     0.1146
  10416 H          33.3139   14.4078   16.9669 H     2604  UNL2604     0.1146
  10417 N          33.0330   15.4934   19.0413 N.3   2605  UNL2605    -0.3437
  10418 H          32.4116   15.8162   19.7815 H     2605  UNL2605     0.1146
  10419 H          33.9392   15.3410   19.4818 H     2605  UNL2605     0.1146
  10420 H          32.6934   14.5713   18.7716 H     2605  UNL2605     0.1146
  10421 N          33.0330   15.4934   21.3300 N.3   2606  UNL2606    -0.3437
  10422 H          32.4116   15.8162   22.0702 H     2606  UNL2606     0.1146
  10423 H          33.9392   15.3410   21.7705 H     2606  UNL2606     0.1146
  10424 H          32.6934   14.5713   21.0603 H     2606  UNL2606     0.1146
  10425 N          33.0330   15.4934   23.6187 N.3   2607  UNL2607    -0.3437
  10426 H          32.4116   15.8162   24.3589 H     2607  UNL2607     0.1146
  10427 H          33.9392   15.3410   24.0592 H     2607  UNL2607     0.1146
  10428 H          32.6934   14.5713   23.3490 H     2607  UNL2607     0.1146
  10429 N          32.7900   15.1851   25.9927 N.3   2608  UNL2608    -0.3437
  10430 H          32.9177   14.8019   26.9282 H     2608  UNL2608     0.1146
  10431 H          32.6949   16.1926   26.1124 H     2608  UNL2608     0.1146
  10432 H          33.6746   15.0423   25.5074 H     2608  UNL2608     0.1146
  10433 N          32.7426   15.2950   29.3203 N.3   2609  UNL2609    -0.3437
  10434 H          32.8803   14.7014   30.1370 H     2609  UNL2609     0.1146
  10435 H          33.0218   16.2329   29.6044 H     2609  UNL2609     0.1146
  10436 H          33.4324   14.9926   28.6338 H     2609  UNL2609     0.1146
  10437 N          32.8264   17.7217    0.7370 N.3   2610  UNL2610    -0.3437
  10438 H          32.3847   18.0123    1.6081 H     2610  UNL2610     0.1146
  10439 H          33.5520   18.4114    0.5463 H     2610  UNL2610     0.1146
  10440 H          33.3139   16.8517    0.9459 H     2610  UNL2610     0.1146
  10441 N          32.8264   17.5876    3.4031 N.3   2611  UNL2611    -0.3437
  10442 H          32.3847   18.1116    2.6490 H     2611  UNL2611     0.1146
  10443 H          33.5520   17.0222    2.9648 H     2611  UNL2611     0.1146
  10444 H          33.3139   18.2757    3.9752 H     2611  UNL2611     0.1146
  10445 N          32.8264   17.7217    5.3144 N.3   2612  UNL2612    -0.3437
  10446 H          32.3847   18.0123    6.1855 H     2612  UNL2612     0.1146
  10447 H          33.5520   18.4114    5.1237 H     2612  UNL2612     0.1146
  10448 H          33.3139   16.8517    5.5233 H     2612  UNL2612     0.1146
  10449 N          32.8264   17.7217    7.6031 N.3   2613  UNL2613    -0.3437
  10450 H          32.3847   18.0123    8.4742 H     2613  UNL2613     0.1146
  10451 H          33.5520   18.4114    7.4124 H     2613  UNL2613     0.1146
  10452 H          33.3139   16.8517    7.8120 H     2613  UNL2613     0.1146
  10453 N          32.8264   17.5876   10.2693 N.3   2614  UNL2614    -0.3437
  10454 H          32.3847   18.1116    9.5151 H     2614  UNL2614     0.1146
  10455 H          33.5520   17.0222    9.8309 H     2614  UNL2614     0.1146
  10456 H          33.3139   18.2757   10.8413 H     2614  UNL2614     0.1146
  10457 N          32.8264   17.7217   12.1806 N.3   2615  UNL2615    -0.3437
  10458 H          32.3847   18.0123   13.0517 H     2615  UNL2615     0.1146
  10459 H          33.5520   18.4114   11.9899 H     2615  UNL2615     0.1146
  10460 H          33.3139   16.8517   12.3895 H     2615  UNL2615     0.1146
  10461 N          32.8264   17.7217   14.4693 N.3   2616  UNL2616    -0.3437
  10462 H          32.3847   18.0123   15.3404 H     2616  UNL2616     0.1146
  10463 H          33.5520   18.4114   14.2786 H     2616  UNL2616     0.1146
  10464 H          33.3139   16.8517   14.6782 H     2616  UNL2616     0.1146
  10465 N          32.8264   17.5876   17.1354 N.3   2617  UNL2617    -0.3437
  10466 H          32.3847   18.1116   16.3813 H     2617  UNL2617     0.1146
  10467 H          33.5520   17.0222   16.6971 H     2617  UNL2617     0.1146
  10468 H          33.3139   18.2757   17.7075 H     2617  UNL2617     0.1146
  10469 N          32.8264   17.9439   19.3800 N.3   2618  UNL2618    -0.3437
  10470 H          32.3847   17.0721   19.0915 H     2618  UNL2618     0.1146
  10471 H          33.5520   17.6839   20.0466 H     2618  UNL2618     0.1146
  10472 H          33.3139   18.2972   18.5579 H     2618  UNL2618     0.1146
  10473 N          32.7900   17.6289   21.4152 N.3   2619  UNL2619    -0.3437
  10474 H          32.9177   17.2457   22.3508 H     2619  UNL2619     0.1146
  10475 H          32.6949   18.6364   21.5350 H     2619  UNL2619     0.1146
  10476 H          33.6746   17.4861   20.9300 H     2619  UNL2619     0.1146
  10477 N          32.7900   17.6289   23.7040 N.3   2620  UNL2620    -0.3437
  10478 H          32.9177   17.2457   24.6395 H     2620  UNL2620     0.1146
  10479 H          32.6949   18.6364   23.8237 H     2620  UNL2620     0.1146
  10480 H          33.6746   17.4861   23.2187 H     2620  UNL2620     0.1146
  10481 N          32.8264   17.9439   26.2462 N.3   2621  UNL2621    -0.3437
  10482 H          32.3847   17.0721   25.9577 H     2621  UNL2621     0.1146
  10483 H          33.5520   17.6839   26.9128 H     2621  UNL2621     0.1146
  10484 H          33.3139   18.2972   25.4241 H     2621  UNL2621     0.1146
  10485 N          32.7426   17.7388   29.3203 N.3   2622  UNL2622    -0.3437
  10486 H          32.8803   17.1452   30.1370 H     2622  UNL2622     0.1146
  10487 H          33.0218   18.6767   29.6044 H     2622  UNL2622     0.1146
  10488 H          33.4324   17.4364   28.6338 H     2622  UNL2622     0.1146
  10489 N          32.8264   20.3877    1.0703 N.3   2623  UNL2623    -0.3437
  10490 H          32.3847   19.5159    0.7818 H     2623  UNL2623     0.1146
  10491 H          33.5520   20.1278    1.7369 H     2623  UNL2623     0.1146
  10492 H          33.3139   20.7410    0.2482 H     2623  UNL2623     0.1146
  10493 N          32.8264   20.3877    3.3590 N.3   2624  UNL2624    -0.3437
  10494 H          32.3847   19.5159    3.0705 H     2624  UNL2624     0.1146
  10495 H          33.5520   20.1278    4.0256 H     2624  UNL2624     0.1146
  10496 H          33.3139   20.7410    2.5369 H     2624  UNL2624     0.1146
  10497 N          32.8264   20.3877    5.6477 N.3   2625  UNL2625    -0.3437
  10498 H          32.3847   19.5159    5.3592 H     2625  UNL2625     0.1146
  10499 H          33.5520   20.1278    6.3143 H     2625  UNL2625     0.1146
  10500 H          33.3139   20.7410    4.8256 H     2625  UNL2625     0.1146
  10501 N          32.8264   20.3877    7.9365 N.3   2626  UNL2626    -0.3437
  10502 H          32.3847   19.5159    7.6479 H     2626  UNL2626     0.1146
  10503 H          33.5520   20.1278    8.6031 H     2626  UNL2626     0.1146
  10504 H          33.3139   20.7410    7.1144 H     2626  UNL2626     0.1146
  10505 N          32.8264   20.3877   10.2252 N.3   2627  UNL2627    -0.3437
  10506 H          32.3847   19.5159    9.9367 H     2627  UNL2627     0.1146
  10507 H          33.5520   20.1278   10.8918 H     2627  UNL2627     0.1146
  10508 H          33.3139   20.7410    9.4031 H     2627  UNL2627     0.1146
  10509 N          32.8264   20.3877   12.5139 N.3   2628  UNL2628    -0.3437
  10510 H          32.3847   19.5159   12.2254 H     2628  UNL2628     0.1146
  10511 H          33.5520   20.1278   13.1805 H     2628  UNL2628     0.1146
  10512 H          33.3139   20.7410   11.6918 H     2628  UNL2628     0.1146
  10513 N          32.8264   20.3877   14.8026 N.3   2629  UNL2629    -0.3437
  10514 H          32.3847   19.5159   14.5141 H     2629  UNL2629     0.1146
  10515 H          33.5520   20.1278   15.4692 H     2629  UNL2629     0.1146
  10516 H          33.3139   20.7410   13.9805 H     2629  UNL2629     0.1146
  10517 N          32.8264   20.3877   17.0913 N.3   2630  UNL2630    -0.3437
  10518 H          32.3847   19.5159   16.8028 H     2630  UNL2630     0.1146
  10519 H          33.5520   20.1278   17.7579 H     2630  UNL2630     0.1146
  10520 H          33.3139   20.7410   16.2692 H     2630  UNL2630     0.1146
  10521 N          32.8264   20.3877   19.3800 N.3   2631  UNL2631    -0.3437
  10522 H          32.3847   19.5159   19.0915 H     2631  UNL2631     0.1146
  10523 H          33.5520   20.1278   20.0466 H     2631  UNL2631     0.1146
  10524 H          33.3139   20.7410   18.5579 H     2631  UNL2631     0.1146
  10525 N          32.8264   20.1656   21.3354 N.3   2632  UNL2632    -0.3437
  10526 H          32.3847   20.4562   22.2065 H     2632  UNL2632     0.1146
  10527 H          33.5520   20.8552   21.1447 H     2632  UNL2632     0.1146
  10528 H          33.3139   19.2955   21.5443 H     2632  UNL2632     0.1146
  10529 N          33.0330   20.3810   23.6187 N.3   2633  UNL2633    -0.3437
  10530 H          32.4116   20.7038   24.3589 H     2633  UNL2633     0.1146
  10531 H          33.9392   20.2286   24.0592 H     2633  UNL2633     0.1146
  10532 H          32.6934   19.4589   23.3490 H     2633  UNL2633     0.1146
  10533 N          32.7900   20.0727   25.9927 N.3   2634  UNL2634    -0.3437
  10534 H          32.9177   19.6895   26.9282 H     2634  UNL2634     0.1146
  10535 H          32.6949   21.0802   26.1124 H     2634  UNL2634     0.1146
  10536 H          33.6746   19.9299   25.5074 H     2634  UNL2634     0.1146
  10537 N          32.7426   20.1826   29.3203 N.3   2635  UNL2635    -0.3437
  10538 H          32.8803   19.5890   30.1370 H     2635  UNL2635     0.1146
  10539 H          33.0218   21.1205   29.6044 H     2635  UNL2635     0.1146
  10540 H          33.4324   19.8802   28.6338 H     2635  UNL2635     0.1146
  10541 N          32.8264   22.4752    1.1144 N.3   2636  UNL2636    -0.3437
  10542 H          32.3847   22.9992    0.3603 H     2636  UNL2636     0.1146
  10543 H          33.5520   21.9098    0.6761 H     2636  UNL2636     0.1146
  10544 H          33.3139   23.1633    1.6865 H     2636  UNL2636     0.1146
  10545 N          32.9566   22.6094    3.5356 N.3   2637  UNL2637    -0.3437
  10546 H          33.9188   22.9000    3.3681 H     2637  UNL2637     0.1146
  10547 H          32.3696   23.2990    3.0684 H     2637  UNL2637     0.1146
  10548 H          32.8322   21.7393    3.0200 H     2637  UNL2637     0.1146
  10549 N          32.8264   22.8315    5.6477 N.3   2638  UNL2638    -0.3437
  10550 H          32.3847   21.9597    5.3592 H     2638  UNL2638     0.1146
  10551 H          33.5520   22.5716    6.3143 H     2638  UNL2638     0.1146
  10552 H          33.3139   23.1848    4.8256 H     2638  UNL2638     0.1146
  10553 N          32.8264   22.8315    7.9365 N.3   2639  UNL2639    -0.3437
  10554 H          32.3847   21.9597    7.6479 H     2639  UNL2639     0.1146
  10555 H          33.5520   22.5716    8.6031 H     2639  UNL2639     0.1146
  10556 H          33.3139   23.1848    7.1144 H     2639  UNL2639     0.1146
  10557 N          32.8264   22.8315   10.2252 N.3   2640  UNL2640    -0.3437
  10558 H          32.3847   21.9597    9.9367 H     2640  UNL2640     0.1146
  10559 H          33.5520   22.5716   10.8918 H     2640  UNL2640     0.1146
  10560 H          33.3139   23.1848    9.4031 H     2640  UNL2640     0.1146
  10561 N          32.8264   22.8315   12.5139 N.3   2641  UNL2641    -0.3437
  10562 H          32.3847   21.9597   12.2254 H     2641  UNL2641     0.1146
  10563 H          33.5520   22.5716   13.1805 H     2641  UNL2641     0.1146
  10564 H          33.3139   23.1848   11.6918 H     2641  UNL2641     0.1146
  10565 N          32.8264   22.8315   14.8026 N.3   2642  UNL2642    -0.3437
  10566 H          32.3847   21.9597   14.5141 H     2642  UNL2642     0.1146
  10567 H          33.5520   22.5716   15.4692 H     2642  UNL2642     0.1146
  10568 H          33.3139   23.1848   13.9805 H     2642  UNL2642     0.1146
  10569 N          32.8264   22.8315   17.0913 N.3   2643  UNL2643    -0.3437
  10570 H          32.3847   21.9597   16.8028 H     2643  UNL2643     0.1146
  10571 H          33.5520   22.5716   17.7579 H     2643  UNL2643     0.1146
  10572 H          33.3139   23.1848   16.2692 H     2643  UNL2643     0.1146
  10573 N          32.8264   22.8315   19.3800 N.3   2644  UNL2644    -0.3437
  10574 H          32.3847   21.9597   19.0915 H     2644  UNL2644     0.1146
  10575 H          33.5520   22.5716   20.0466 H     2644  UNL2644     0.1146
  10576 H          33.3139   23.1848   18.5579 H     2644  UNL2644     0.1146
  10577 N          32.8264   22.6094   21.3354 N.3   2645  UNL2645    -0.3437
  10578 H          32.3847   22.9000   22.2065 H     2645  UNL2645     0.1146
  10579 H          33.5520   23.2990   21.1447 H     2645  UNL2645     0.1146
  10580 H          33.3139   21.7393   21.5443 H     2645  UNL2645     0.1146
  10581 N          32.8264   22.4752   24.0016 N.3   2646  UNL2646    -0.3437
  10582 H          32.3847   22.9992   23.2474 H     2646  UNL2646     0.1146
  10583 H          33.5520   21.9098   23.5632 H     2646  UNL2646     0.1146
  10584 H          33.3139   23.1633   24.5736 H     2646  UNL2646     0.1146
  10585 N          32.8264   22.8315   26.2462 N.3   2647  UNL2647    -0.3437
  10586 H          32.3847   21.9597   25.9577 H     2647  UNL2647     0.1146
  10587 H          33.5520   22.5716   26.9128 H     2647  UNL2647     0.1146
  10588 H          33.3139   23.1848   25.4241 H     2647  UNL2647     0.1146
  10589 N          32.7426   22.6264   29.3203 N.3   2648  UNL2648    -0.3437
  10590 H          32.8803   22.0328   30.1370 H     2648  UNL2648     0.1146
  10591 H          33.0218   23.5643   29.6044 H     2648  UNL2648     0.1146
  10592 H          33.4324   22.3240   28.6338 H     2648  UNL2648     0.1146
  10593 N          32.8264   24.9191    1.1144 N.3   2649  UNL2649    -0.3437
  10594 H          32.3847   25.4430    0.3603 H     2649  UNL2649     0.1146
  10595 H          33.5520   24.3536    0.6761 H     2649  UNL2649     0.1146
  10596 H          33.3139   25.6071    1.6865 H     2649  UNL2649     0.1146
  10597 N          32.8264   25.0532    3.0257 N.3   2650  UNL2650    -0.3437
  10598 H          32.3847   25.3438    3.8968 H     2650  UNL2650     0.1146
  10599 H          33.5520   25.7428    2.8350 H     2650  UNL2650     0.1146
  10600 H          33.3139   24.1831    3.2346 H     2650  UNL2650     0.1146
  10601 N          33.0330   25.2686    5.3090 N.3   2651  UNL2651    -0.3437
  10602 H          32.4116   25.5914    6.0492 H     2651  UNL2651     0.1146
  10603 H          33.9392   25.1162    5.7495 H     2651  UNL2651     0.1146
  10604 H          32.6934   24.3465    5.0393 H     2651  UNL2651     0.1146
  10605 N          32.7900   24.9603    7.6830 N.3   2652  UNL2652    -0.3437
  10606 H          32.9177   24.5771    8.6185 H     2652  UNL2652     0.1146
  10607 H          32.6949   25.9678    7.8027 H     2652  UNL2652     0.1146
  10608 H          33.6746   24.8175    7.1977 H     2652  UNL2652     0.1146
  10609 N          32.8264   24.9191   10.2693 N.3   2653  UNL2653    -0.3437
  10610 H          32.3847   25.4430    9.5151 H     2653  UNL2653     0.1146
  10611 H          33.5520   24.3536    9.8309 H     2653  UNL2653     0.1146
  10612 H          33.3139   25.6071   10.8413 H     2653  UNL2653     0.1146
  10613 N          32.8264   25.0532   12.1806 N.3   2654  UNL2654    -0.3437
  10614 H          32.3847   25.3438   13.0517 H     2654  UNL2654     0.1146
  10615 H          33.5520   25.7428   11.9899 H     2654  UNL2654     0.1146
  10616 H          33.3139   24.1831   12.3895 H     2654  UNL2654     0.1146
  10617 N          33.0330   25.2686   14.4638 N.3   2655  UNL2655    -0.3437
  10618 H          32.4116   25.5914   15.2040 H     2655  UNL2655     0.1146
  10619 H          33.9392   25.1162   14.9044 H     2655  UNL2655     0.1146
  10620 H          32.6934   24.3465   14.1942 H     2655  UNL2655     0.1146
  10621 N          32.7900   24.9603   16.8378 N.3   2656  UNL2656    -0.3437
  10622 H          32.9177   24.5771   17.7733 H     2656  UNL2656     0.1146
  10623 H          32.6949   25.9678   16.9575 H     2656  UNL2656     0.1146
  10624 H          33.6746   24.8175   16.3526 H     2656  UNL2656     0.1146
  10625 N          32.8264   24.9191   19.4241 N.3   2657  UNL2657    -0.3437
  10626 H          32.3847   25.4430   18.6700 H     2657  UNL2657     0.1146
  10627 H          33.5520   24.3536   18.9858 H     2657  UNL2657     0.1146
  10628 H          33.3139   25.6071   19.9962 H     2657  UNL2657     0.1146
  10629 N          32.9566   25.0532   21.8453 N.3   2658  UNL2658    -0.3437
  10630 H          33.9188   25.3438   21.6778 H     2658  UNL2658     0.1146
  10631 H          32.3696   25.7428   21.3781 H     2658  UNL2658     0.1146
  10632 H          32.8322   24.1831   21.3297 H     2658  UNL2658     0.1146
  10633 N          32.8264   25.0532   23.6241 N.3   2659  UNL2659    -0.3437
  10634 H          32.3847   25.3438   24.4952 H     2659  UNL2659     0.1146
  10635 H          33.5520   25.7428   23.4334 H     2659  UNL2659     0.1146
  10636 H          33.3139   24.1831   23.8330 H     2659  UNL2659     0.1146
  10637 N          32.8264   24.9191   26.2903 N.3   2660  UNL2660    -0.3437
  10638 H          32.3847   25.4430   25.5361 H     2660  UNL2660     0.1146
  10639 H          33.5520   24.3536   25.8519 H     2660  UNL2660     0.1146
  10640 H          33.3139   25.6071   26.8623 H     2660  UNL2660     0.1146
  10641 N          32.7426   25.0702   29.3203 N.3   2661  UNL2661    -0.3437
  10642 H          32.8803   24.4766   30.1370 H     2661  UNL2661     0.1146
  10643 H          33.0218   26.0081   29.6044 H     2661  UNL2661     0.1146
  10644 H          33.4324   24.7678   28.6338 H     2661  UNL2661     0.1146
  10645 N          32.8264   27.4970    0.7370 N.3   2662  UNL2662    -0.3437
  10646 H          32.3847   27.7876    1.6081 H     2662  UNL2662     0.1146
  10647 H          33.5520   28.1866    0.5463 H     2662  UNL2662     0.1146
  10648 H          33.3139   26.6269    0.9459 H     2662  UNL2662     0.1146
  10649 N          32.8264   27.3629    3.4031 N.3   2663  UNL2663    -0.3437
  10650 H          32.3847   27.8868    2.6490 H     2663  UNL2663     0.1146
  10651 H          33.5520   26.7974    2.9648 H     2663  UNL2663     0.1146
  10652 H          33.3139   28.0509    3.9752 H     2663  UNL2663     0.1146
  10653 N          32.8264   27.4970    5.3144 N.3   2664  UNL2664    -0.3437
  10654 H          32.3847   27.7876    6.1855 H     2664  UNL2664     0.1146
  10655 H          33.5520   28.1866    5.1237 H     2664  UNL2664     0.1146
  10656 H          33.3139   26.6269    5.5233 H     2664  UNL2664     0.1146
  10657 N          32.8264   27.4970    7.6031 N.3   2665  UNL2665    -0.3437
  10658 H          32.3847   27.7876    8.4742 H     2665  UNL2665     0.1146
  10659 H          33.5520   28.1866    7.4124 H     2665  UNL2665     0.1146
  10660 H          33.3139   26.6269    7.8120 H     2665  UNL2665     0.1146
  10661 N          33.0330   27.7124    9.8864 N.3   2666  UNL2666    -0.3437
  10662 H          32.4116   28.0352   10.6266 H     2666  UNL2666     0.1146
  10663 H          33.9392   27.5600   10.3270 H     2666  UNL2666     0.1146
  10664 H          32.6934   26.7903    9.6167 H     2666  UNL2666     0.1146
  10665 N          33.0330   27.7124   12.1751 N.3   2667  UNL2667    -0.3437
  10666 H          32.4116   28.0352   12.9153 H     2667  UNL2667     0.1146
  10667 H          33.9392   27.5600   12.6157 H     2667  UNL2667     0.1146
  10668 H          32.6934   26.7903   11.9054 H     2667  UNL2667     0.1146
  10669 N          32.8264   27.4970   14.4693 N.3   2668  UNL2668    -0.3437
  10670 H          32.3847   27.7876   15.3404 H     2668  UNL2668     0.1146
  10671 H          33.5520   28.1866   14.2786 H     2668  UNL2668     0.1146
  10672 H          33.3139   26.6269   14.6782 H     2668  UNL2668     0.1146
  10673 N          32.8264   27.4970   16.7580 N.3   2669  UNL2669    -0.3437
  10674 H          32.3847   27.7876   17.6291 H     2669  UNL2669     0.1146
  10675 H          33.5520   28.1866   16.5673 H     2669  UNL2669     0.1146
  10676 H          33.3139   26.6269   16.9669 H     2669  UNL2669     0.1146
  10677 N          32.8264   27.4970   19.0467 N.3   2670  UNL2670    -0.3437
  10678 H          32.3847   27.7876   19.9178 H     2670  UNL2670     0.1146
  10679 H          33.5520   28.1866   18.8560 H     2670  UNL2670     0.1146
  10680 H          33.3139   26.6269   19.2556 H     2670  UNL2670     0.1146
  10681 N          32.8264   27.4970   21.3354 N.3   2671  UNL2671    -0.3437
  10682 H          32.3847   27.7876   22.2065 H     2671  UNL2671     0.1146
  10683 H          33.5520   28.1866   21.1447 H     2671  UNL2671     0.1146
  10684 H          33.3139   26.6269   21.5443 H     2671  UNL2671     0.1146
  10685 N          32.8264   27.3629   24.0016 N.3   2672  UNL2672    -0.3437
  10686 H          32.3847   27.8868   23.2474 H     2672  UNL2672     0.1146
  10687 H          33.5520   26.7974   23.5632 H     2672  UNL2672     0.1146
  10688 H          33.3139   28.0509   24.5736 H     2672  UNL2672     0.1146
  10689 N          32.8264   27.4970   25.9128 N.3   2673  UNL2673    -0.3437
  10690 H          32.3847   27.7876   26.7840 H     2673  UNL2673     0.1146
  10691 H          33.5520   28.1866   25.7221 H     2673  UNL2673     0.1146
  10692 H          33.3139   26.6269   26.1217 H     2673  UNL2673     0.1146
  10693 N          32.7426   27.5140   29.3203 N.3   2674  UNL2674    -0.3437
  10694 H          32.8803   26.9204   30.1370 H     2674  UNL2674     0.1146
  10695 H          33.0218   28.4519   29.6044 H     2674  UNL2674     0.1146
  10696 H          33.4324   27.2116   28.6338 H     2674  UNL2674     0.1146
  10697 N          32.8264   30.9408    0.7370 N.3   2675  UNL2675    -0.3437
  10698 H          32.3847   31.2314    1.6081 H     2675  UNL2675     0.1146
  10699 H          33.5520   31.6304    0.5463 H     2675  UNL2675     0.1146
  10700 H          33.3139   30.0707    0.9459 H     2675  UNL2675     0.1146
  10701 N          32.8264   30.9408    3.0257 N.3   2676  UNL2676    -0.3437
  10702 H          32.3847   31.2314    3.8968 H     2676  UNL2676     0.1146
  10703 H          33.5520   31.6304    2.8350 H     2676  UNL2676     0.1146
  10704 H          33.3139   30.0707    3.2346 H     2676  UNL2676     0.1146
  10705 N          32.8264   30.9408    5.3144 N.3   2677  UNL2677    -0.3437
  10706 H          32.3847   31.2314    6.1855 H     2677  UNL2677     0.1146
  10707 H          33.5520   31.6304    5.1237 H     2677  UNL2677     0.1146
  10708 H          33.3139   30.0707    5.5233 H     2677  UNL2677     0.1146
  10709 N          32.9566   29.9408    8.1130 N.3   2678  UNL2678    -0.3437
  10710 H          33.9188   30.2314    7.9456 H     2678  UNL2678     0.1146
  10711 H          32.3696   30.6304    7.6458 H     2678  UNL2678     0.1146
  10712 H          32.8322   29.0707    7.5974 H     2678  UNL2678     0.1146
  10713 N          32.8264   30.9408    9.8918 N.3   2679  UNL2679    -0.3437
  10714 H          32.3847   31.2314   10.7629 H     2679  UNL2679     0.1146
  10715 H          33.5520   31.6304    9.7011 H     2679  UNL2679     0.1146
  10716 H          33.3139   30.0707   10.1007 H     2679  UNL2679     0.1146
  10717 N          32.8264   30.9408   12.1806 N.3   2680  UNL2680    -0.3437
  10718 H          32.3847   31.2314   13.0517 H     2680  UNL2680     0.1146
  10719 H          33.5520   31.6304   11.9899 H     2680  UNL2680     0.1146
  10720 H          33.3139   30.0707   12.3895 H     2680  UNL2680     0.1146
  10721 N          33.0163   30.7107   14.5467 N.3   2681  UNL2681    -0.3437
  10722 H          32.0818   31.0854   14.7036 H     2681  UNL2681     0.1146
  10723 H          33.5301   31.4367   14.0494 H     2681  UNL2681     0.1146
  10724 H          33.4489   30.6405   15.4667 H     2681  UNL2681     0.1146
  10725 N          32.8264   30.9408   16.7580 N.3   2682  UNL2682    -0.3437
  10726 H          32.3847   31.2314   17.6291 H     2682  UNL2682     0.1146
  10727 H          33.5520   31.6304   16.5673 H     2682  UNL2682     0.1146
  10728 H          33.3139   30.0707   16.9669 H     2682  UNL2682     0.1146
  10729 N          32.8264   30.9408   19.0467 N.3   2683  UNL2683    -0.3437
  10730 H          32.3847   31.2314   19.9178 H     2683  UNL2683     0.1146
  10731 H          33.5520   31.6304   18.8560 H     2683  UNL2683     0.1146
  10732 H          33.3139   30.0707   19.2556 H     2683  UNL2683     0.1146
  10733 N          32.8264   30.9408   21.3354 N.3   2684  UNL2684    -0.3437
  10734 H          32.3847   31.2314   22.2065 H     2684  UNL2684     0.1146
  10735 H          33.5520   31.6304   21.1447 H     2684  UNL2684     0.1146
  10736 H          33.3139   30.0707   21.5443 H     2684  UNL2684     0.1146
  10737 N          33.0163   30.7107   23.7016 N.3   2685  UNL2685    -0.3437
  10738 H          32.0818   31.0854   23.8585 H     2685  UNL2685     0.1146
  10739 H          33.5301   31.4367   23.2043 H     2685  UNL2685     0.1146
  10740 H          33.4489   30.6405   24.6215 H     2685  UNL2685     0.1146
  10741 N          32.8264   30.9408   25.9128 N.3   2686  UNL2686    -0.3437
  10742 H          32.3847   31.2314   26.7840 H     2686  UNL2686     0.1146
  10743 H          33.5520   31.6304   25.7221 H     2686  UNL2686     0.1146
  10744 H          33.3139   30.0707   26.1217 H     2686  UNL2686     0.1146
  10745 N          32.8264   29.9408   28.2016 N.3   2687  UNL2687    -0.3437
  10746 H          32.3847   30.2314   29.0727 H     2687  UNL2687     0.1146
  10747 H          33.5520   30.6304   28.0109 H     2687  UNL2687     0.1146
  10748 H          33.3139   29.0707   28.4105 H     2687  UNL2687     0.1146
  10749 N          34.9651    0.8013    1.2718 N.3   2688  UNL2688    -0.3437
  10750 H          35.3813    0.5827    2.1759 H     2688  UNL2688     0.1146
  10751 H          35.6891    1.2799    0.7378 H     2688  UNL2688     0.1146
  10752 H          34.8182   -0.0933    0.8066 H     2688  UNL2688     0.1146
  10753 N          35.5069    0.6151    3.5153 N.3   2689  UNL2689    -0.3437
  10754 H          35.0734    0.9057    2.6401 H     2689  UNL2689     0.1146
  10755 H          35.2255    1.3047    4.2107 H     2689  UNL2689     0.1146
  10756 H          35.0478   -0.2550    3.7808 H     2689  UNL2689     0.1146
  10757 N          35.0206    0.8372    5.9365 N.3   2690  UNL2690    -0.3437
  10758 H          34.5789   -0.0346    5.6479 H     2690  UNL2690     0.1146
  10759 H          35.7462    0.5773    6.6031 H     2690  UNL2690     0.1146
  10760 H          35.5081    1.1906    5.1144 H     2690  UNL2690     0.1146
  10761 N          35.0206    0.8372    8.2252 N.3   2691  UNL2691    -0.3437
  10762 H          34.5789   -0.0346    7.9367 H     2691  UNL2691     0.1146
  10763 H          35.7462    0.5773    8.8918 H     2691  UNL2691     0.1146
  10764 H          35.5081    1.1906    7.4031 H     2691  UNL2691     0.1146
  10765 N          34.9368    0.6321   12.2993 N.3   2692  UNL2692    -0.3437
  10766 H          35.0745    0.0386   13.1160 H     2692  UNL2692     0.1146
  10767 H          35.2159    1.5701   12.5834 H     2692  UNL2692     0.1146
  10768 H          35.6265    0.3298   11.6128 H     2692  UNL2692     0.1146
  10769 N          35.0206    0.4810   14.8467 N.3   2693  UNL2693    -0.3437
  10770 H          34.5789    1.0050   14.0926 H     2693  UNL2693     0.1146
  10771 H          35.7462   -0.0845   14.4084 H     2693  UNL2693     0.1146
  10772 H          35.5081    1.1691   15.4188 H     2693  UNL2693     0.1146
  10773 N          35.1507    0.6151   17.2679 N.3   2694  UNL2694    -0.3437
  10774 H          36.1129    0.9057   17.1004 H     2694  UNL2694     0.1146
  10775 H          34.5637    1.3047   16.8007 H     2694  UNL2694     0.1146
  10776 H          35.0263   -0.2550   16.7523 H     2694  UNL2694     0.1146
  10777 N          35.0206    0.6151   19.0467 N.3   2695  UNL2695    -0.3437
  10778 H          34.5789    0.9057   19.9178 H     2695  UNL2695     0.1146
  10779 H          35.7462    1.3047   18.8560 H     2695  UNL2695     0.1146
  10780 H          35.5081   -0.2550   19.2556 H     2695  UNL2695     0.1146
  10781 N          35.0206    0.6151   21.3354 N.3   2696  UNL2696    -0.3437
  10782 H          34.5789    0.9057   22.2065 H     2696  UNL2696     0.1146
  10783 H          35.7462    1.3047   21.1447 H     2696  UNL2696     0.1146
  10784 H          35.5081   -0.2550   21.5443 H     2696  UNL2696     0.1146
  10785 N          35.0206    0.4810   24.0016 N.3   2697  UNL2697    -0.3437
  10786 H          34.5789    1.0050   23.2474 H     2697  UNL2697     0.1146
  10787 H          35.7462   -0.0845   23.5632 H     2697  UNL2697     0.1146
  10788 H          35.5081    1.1691   24.5736 H     2697  UNL2697     0.1146
  10789 N          35.1507    0.6151   26.4227 N.3   2698  UNL2698    -0.3437
  10790 H          36.1129    0.9057   26.2553 H     2698  UNL2698     0.1146
  10791 H          34.5637    1.3047   25.9555 H     2698  UNL2698     0.1146
  10792 H          35.0263   -0.2550   25.9071 H     2698  UNL2698     0.1146
  10793 N          35.0206    3.2810    1.0703 N.3   2699  UNL2699    -0.3437
  10794 H          34.5789    2.4092    0.7818 H     2699  UNL2699     0.1146
  10795 H          35.7462    3.0211    1.7369 H     2699  UNL2699     0.1146
  10796 H          35.5081    3.6344    0.2482 H     2699  UNL2699     0.1146
  10797 N          35.0206    3.2810    3.3590 N.3   2700  UNL2700    -0.3437
  10798 H          34.5789    2.4092    3.0705 H     2700  UNL2700     0.1146
  10799 H          35.7462    3.0211    4.0256 H     2700  UNL2700     0.1146
  10800 H          35.5081    3.6344    2.5369 H     2700  UNL2700     0.1146
  10801 N          35.0206    3.2810    5.6477 N.3   2701  UNL2701    -0.3437
  10802 H          34.5789    2.4092    5.3592 H     2701  UNL2701     0.1146
  10803 H          35.7462    3.0211    6.3143 H     2701  UNL2701     0.1146
  10804 H          35.5081    3.6344    4.8256 H     2701  UNL2701     0.1146
  10805 N          35.0206    3.2810    7.9365 N.3   2702  UNL2702    -0.3437
  10806 H          34.5789    2.4092    7.6479 H     2702  UNL2702     0.1146
  10807 H          35.7462    3.0211    8.6031 H     2702  UNL2702     0.1146
  10808 H          35.5081    3.6344    7.1144 H     2702  UNL2702     0.1146
  10809 N          35.2461    3.1598    9.8297 N.3   2703  UNL2703    -0.3437
  10810 H          34.3363    2.7459   10.0278 H     2703  UNL2703     0.1146
  10811 H          35.3332    3.9593   10.4555 H     2703  UNL2703     0.1146
  10812 H          35.9380    2.4808   10.1437 H     2703  UNL2703     0.1146
  10813 N          35.0206    3.0589   12.1806 N.3   2704  UNL2704    -0.3437
  10814 H          34.5789    3.3495   13.0517 H     2704  UNL2704     0.1146
  10815 H          35.7462    3.7485   11.9899 H     2704  UNL2704     0.1146
  10816 H          35.5081    2.1888   12.3895 H     2704  UNL2704     0.1146
  10817 N          35.2272    3.2743   14.4638 N.3   2705  UNL2705    -0.3437
  10818 H          34.6057    3.5972   15.2040 H     2705  UNL2705     0.1146
  10819 H          36.1333    3.1220   14.9044 H     2705  UNL2705     0.1146
  10820 H          34.8875    2.3523   14.1942 H     2705  UNL2705     0.1146
  10821 N          35.2272    3.2743   16.7525 N.3   2706  UNL2706    -0.3437
  10822 H          34.6057    3.5972   17.4928 H     2706  UNL2706     0.1146
  10823 H          36.1333    3.1220   17.1931 H     2706  UNL2706     0.1146
  10824 H          34.8875    2.3523   16.4829 H     2706  UNL2706     0.1146
  10825 N          35.2272    3.2743   19.0413 N.3   2707  UNL2707    -0.3437
  10826 H          34.6057    3.5972   19.7815 H     2707  UNL2707     0.1146
  10827 H          36.1333    3.1220   19.4818 H     2707  UNL2707     0.1146
  10828 H          34.8875    2.3523   18.7716 H     2707  UNL2707     0.1146
  10829 N          34.9841    2.9661   21.4152 N.3   2708  UNL2708    -0.3437
  10830 H          35.1119    2.5829   22.3508 H     2708  UNL2708     0.1146
  10831 H          34.8890    3.9736   21.5350 H     2708  UNL2708     0.1146
  10832 H          35.8687    2.8232   20.9300 H     2708  UNL2708     0.1146
  10833 N          34.9841    2.9661   23.7040 N.3   2709  UNL2709    -0.3437
  10834 H          35.1119    2.5829   24.6395 H     2709  UNL2709     0.1146
  10835 H          34.8890    3.9736   23.8237 H     2709  UNL2709     0.1146
  10836 H          35.8687    2.8232   23.2187 H     2709  UNL2709     0.1146
  10837 N          35.0206    3.2810   26.2462 N.3   2710  UNL2710    -0.3437
  10838 H          34.5789    2.4092   25.9577 H     2710  UNL2710     0.1146
  10839 H          35.7462    3.0211   26.9128 H     2710  UNL2710     0.1146
  10840 H          35.5081    3.6344   25.4241 H     2710  UNL2710     0.1146
  10841 N          32.9246    3.0662   29.3643 N.3   2711  UNL2711    -0.3437
  10842 H          33.1908    3.9846   29.7165 H     2711  UNL2711     0.1146
  10843 H          33.5087    2.8990   28.5461 H     2711  UNL2711     0.1146
  10844 H          33.2296    2.3960   30.0687 H     2711  UNL2711     0.1146
  10845 N          35.0206    5.5027    0.7370 N.3   2712  UNL2712    -0.3437
  10846 H          34.5789    5.7933    1.6081 H     2712  UNL2712     0.1146
  10847 H          35.7462    6.1923    0.5463 H     2712  UNL2712     0.1146
  10848 H          35.5081    4.6326    0.9459 H     2712  UNL2712     0.1146
  10849 N          35.0206    5.5027    3.0257 N.3   2713  UNL2713    -0.3437
  10850 H          34.5789    5.7933    3.8968 H     2713  UNL2713     0.1146
  10851 H          35.7462    6.1923    2.8350 H     2713  UNL2713     0.1146
  10852 H          35.5081    4.6326    3.2346 H     2713  UNL2713     0.1146
  10853 N          35.0206    5.5027    5.3144 N.3   2714  UNL2714    -0.3437
  10854 H          34.5789    5.7933    6.1855 H     2714  UNL2714     0.1146
  10855 H          35.7462    6.1923    5.1237 H     2714  UNL2714     0.1146
  10856 H          35.5081    4.6326    5.5233 H     2714  UNL2714     0.1146
  10857 N          35.0206    5.5027    7.6031 N.3   2715  UNL2715    -0.3437
  10858 H          34.5789    5.7933    8.4742 H     2715  UNL2715     0.1146
  10859 H          35.7462    6.1923    7.4124 H     2715  UNL2715     0.1146
  10860 H          35.5081    4.6326    7.8120 H     2715  UNL2715     0.1146
  10861 N          35.2272    5.7181    9.8864 N.3   2716  UNL2716    -0.3437
  10862 H          34.6057    6.0410   10.6266 H     2716  UNL2716     0.1146
  10863 H          36.1333    5.5658   10.3270 H     2716  UNL2716     0.1146
  10864 H          34.8875    4.7961    9.6167 H     2716  UNL2716     0.1146
  10865 N          35.2272    5.7181   12.1751 N.3   2717  UNL2717    -0.3437
  10866 H          34.6057    6.0410   12.9153 H     2717  UNL2717     0.1146
  10867 H          36.1333    5.5658   12.6157 H     2717  UNL2717     0.1146
  10868 H          34.8875    4.7961   11.9054 H     2717  UNL2717     0.1146
  10869 N          35.0206    5.5027   14.4693 N.3   2718  UNL2718    -0.3437
  10870 H          34.5789    5.7933   15.3404 H     2718  UNL2718     0.1146
  10871 H          35.7462    6.1923   14.2786 H     2718  UNL2718     0.1146
  10872 H          35.5081    4.6326   14.6782 H     2718  UNL2718     0.1146
  10873 N          35.2272    5.7181   16.7525 N.3   2719  UNL2719    -0.3437
  10874 H          34.6057    6.0410   17.4928 H     2719  UNL2719     0.1146
  10875 H          36.1333    5.5658   17.1931 H     2719  UNL2719     0.1146
  10876 H          34.8875    4.7961   16.4829 H     2719  UNL2719     0.1146
  10877 N          35.0206    5.5027   19.0467 N.3   2720  UNL2720    -0.3437
  10878 H          34.5789    5.7933   19.9178 H     2720  UNL2720     0.1146
  10879 H          35.7462    6.1923   18.8560 H     2720  UNL2720     0.1146
  10880 H          35.5081    4.6326   19.2556 H     2720  UNL2720     0.1146
  10881 N          35.0206    5.5027   21.3354 N.3   2721  UNL2721    -0.3437
  10882 H          34.5789    5.7933   22.2065 H     2721  UNL2721     0.1146
  10883 H          35.7462    6.1923   21.1447 H     2721  UNL2721     0.1146
  10884 H          35.5081    4.6326   21.5443 H     2721  UNL2721     0.1146
  10885 N          35.0206    5.5027   23.6241 N.3   2722  UNL2722    -0.3437
  10886 H          34.5789    5.7933   24.4952 H     2722  UNL2722     0.1146
  10887 H          35.7462    6.1923   23.4334 H     2722  UNL2722     0.1146
  10888 H          35.5081    4.6326   23.8330 H     2722  UNL2722     0.1146
  10889 N          35.0206    5.5027   25.9128 N.3   2723  UNL2723    -0.3437
  10890 H          34.5789    5.7933   26.7840 H     2723  UNL2723     0.1146
  10891 H          35.7462    6.1923   25.7221 H     2723  UNL2723     0.1146
  10892 H          35.5081    4.6326   26.1217 H     2723  UNL2723     0.1146
  10893 N          35.0206    3.5027   28.2016 N.3   2724  UNL2724    -0.3437
  10894 H          34.5789    3.7933   29.0727 H     2724  UNL2724     0.1146
  10895 H          35.7462    4.1923   28.0109 H     2724  UNL2724     0.1146
  10896 H          35.5081    2.6326   28.4105 H     2724  UNL2724     0.1146
  10897 N          35.0206    8.1686    1.0703 N.3   2725  UNL2725    -0.3437
  10898 H          34.5789    7.2968    0.7818 H     2725  UNL2725     0.1146
  10899 H          35.7462    7.9087    1.7369 H     2725  UNL2725     0.1146
  10900 H          35.5081    8.5220    0.2482 H     2725  UNL2725     0.1146
  10901 N          35.0206    8.1686    3.3590 N.3   2726  UNL2726    -0.3437
  10902 H          34.5789    7.2968    3.0705 H     2726  UNL2726     0.1146
  10903 H          35.7462    7.9087    4.0256 H     2726  UNL2726     0.1146
  10904 H          35.5081    8.5220    2.5369 H     2726  UNL2726     0.1146
  10905 N          35.0206    8.1686    5.6477 N.3   2727  UNL2727    -0.3437
  10906 H          34.5789    7.2968    5.3592 H     2727  UNL2727     0.1146
  10907 H          35.7462    7.9087    6.3143 H     2727  UNL2727     0.1146
  10908 H          35.5081    8.5220    4.8256 H     2727  UNL2727     0.1146
  10909 N          35.0206    8.1686    7.9365 N.3   2728  UNL2728    -0.3437
  10910 H          34.5789    7.2968    7.6479 H     2728  UNL2728     0.1146
  10911 H          35.7462    7.9087    8.6031 H     2728  UNL2728     0.1146
  10912 H          35.5081    8.5220    7.1144 H     2728  UNL2728     0.1146
  10913 N          35.0206    8.1686   10.2252 N.3   2729  UNL2729    -0.3437
  10914 H          34.5789    7.2968    9.9367 H     2729  UNL2729     0.1146
  10915 H          35.7462    7.9087   10.8918 H     2729  UNL2729     0.1146
  10916 H          35.5081    8.5220    9.4031 H     2729  UNL2729     0.1146
  10917 N          35.0206    7.9465   12.1806 N.3   2730  UNL2730    -0.3437
  10918 H          34.5789    8.2371   13.0517 H     2730  UNL2730     0.1146
  10919 H          35.7462    8.6361   11.9899 H     2730  UNL2730     0.1146
  10920 H          35.5081    7.0764   12.3895 H     2730  UNL2730     0.1146
  10921 N          35.2272    8.1620   14.4638 N.3   2731  UNL2731    -0.3437
  10922 H          34.6057    8.4848   15.2040 H     2731  UNL2731     0.1146
  10923 H          36.1333    8.0096   14.9044 H     2731  UNL2731     0.1146
  10924 H          34.8875    7.2399   14.1942 H     2731  UNL2731     0.1146
  10925 N          35.2272    8.1620   16.7525 N.3   2732  UNL2732    -0.3437
  10926 H          34.6057    8.4848   17.4928 H     2732  UNL2732     0.1146
  10927 H          36.1333    8.0096   17.1931 H     2732  UNL2732     0.1146
  10928 H          34.8875    7.2399   16.4829 H     2732  UNL2732     0.1146
  10929 N          35.2272    8.1620   19.0413 N.3   2733  UNL2733    -0.3437
  10930 H          34.6057    8.4848   19.7815 H     2733  UNL2733     0.1146
  10931 H          36.1333    8.0096   19.4818 H     2733  UNL2733     0.1146
  10932 H          34.8875    7.2399   18.7716 H     2733  UNL2733     0.1146
  10933 N          35.0206    7.9465   21.3354 N.3   2734  UNL2734    -0.3437
  10934 H          34.5789    8.2371   22.2065 H     2734  UNL2734     0.1146
  10935 H          35.7462    8.6361   21.1447 H     2734  UNL2734     0.1146
  10936 H          35.5081    7.0764   21.5443 H     2734  UNL2734     0.1146
  10937 N          35.0206    7.8124   24.0016 N.3   2735  UNL2735    -0.3437
  10938 H          34.5789    8.3364   23.2474 H     2735  UNL2735     0.1146
  10939 H          35.7462    7.2469   23.5632 H     2735  UNL2735     0.1146
  10940 H          35.5081    8.5005   24.5736 H     2735  UNL2735     0.1146
  10941 N          35.0206    8.1686   26.2462 N.3   2736  UNL2736    -0.3437
  10942 H          34.5789    7.2968   25.9577 H     2736  UNL2736     0.1146
  10943 H          35.7462    7.9087   26.9128 H     2736  UNL2736     0.1146
  10944 H          35.5081    8.5220   25.4241 H     2736  UNL2736     0.1146
  10945 N          35.1507    5.9465   29.7114 N.3   2737  UNL2737    -0.3437
  10946 H          36.1129    6.2371   29.5440 H     2737  UNL2737     0.1146
  10947 H          34.5637    6.6361   29.2443 H     2737  UNL2737     0.1146
  10948 H          35.0263    5.0764   29.1959 H     2737  UNL2737     0.1146
  10949 N          35.0206   10.6125    1.0703 N.3   2738  UNL2738    -0.3437
  10950 H          34.5789    9.7407    0.7818 H     2738  UNL2738     0.1146
  10951 H          35.7462   10.3525    1.7369 H     2738  UNL2738     0.1146
  10952 H          35.5081   10.9658    0.2482 H     2738  UNL2738     0.1146
  10953 N          35.0206   10.3903    3.0257 N.3   2739  UNL2739    -0.3437
  10954 H          34.5789   10.6809    3.8968 H     2739  UNL2739     0.1146
  10955 H          35.7462   11.0799    2.8350 H     2739  UNL2739     0.1146
  10956 H          35.5081    9.5202    3.2346 H     2739  UNL2739     0.1146
  10957 N          35.2272   10.6058    5.3090 N.3   2740  UNL2740    -0.3437
  10958 H          34.6057   10.9286    6.0492 H     2740  UNL2740     0.1146
  10959 H          36.1333   10.4534    5.7495 H     2740  UNL2740     0.1146
  10960 H          34.8875    9.6837    5.0393 H     2740  UNL2740     0.1146
  10961 N          35.2272   10.6058    7.5977 N.3   2741  UNL2741    -0.3437
  10962 H          34.6057   10.9286    8.3379 H     2741  UNL2741     0.1146
  10963 H          36.1333   10.4534    8.0382 H     2741  UNL2741     0.1146
  10964 H          34.8875    9.6837    7.3280 H     2741  UNL2741     0.1146
  10965 N          34.9841   10.2975    9.9717 N.3   2742  UNL2742    -0.3437
  10966 H          35.1119    9.9143   10.9072 H     2742  UNL2742     0.1146
  10967 H          34.8890   11.3050   10.0914 H     2742  UNL2742     0.1146
  10968 H          35.8687   10.1547    9.4864 H     2742  UNL2742     0.1146
  10969 N          34.9841   10.2975   12.2604 N.3   2743  UNL2743    -0.3437
  10970 H          35.1119    9.9143   13.1959 H     2743  UNL2743     0.1146
  10971 H          34.8890   11.3050   12.3801 H     2743  UNL2743     0.1146
  10972 H          35.8687   10.1547   11.7751 H     2743  UNL2743     0.1146
  10973 N          35.0206   10.2562   14.8467 N.3   2744  UNL2744    -0.3437
  10974 H          34.5789   10.7802   14.0926 H     2744  UNL2744     0.1146
  10975 H          35.7462    9.6907   14.4084 H     2744  UNL2744     0.1146
  10976 H          35.5081   10.9443   15.4188 H     2744  UNL2744     0.1146
  10977 N          35.0206   10.6125   17.0913 N.3   2745  UNL2745    -0.3437
  10978 H          34.5789    9.7407   16.8028 H     2745  UNL2745     0.1146
  10979 H          35.7462   10.3525   17.7579 H     2745  UNL2745     0.1146
  10980 H          35.5081   10.9658   16.2692 H     2745  UNL2745     0.1146
  10981 N          35.0206   10.6125   19.3800 N.3   2746  UNL2746    -0.3437
  10982 H          34.5789    9.7407   19.0915 H     2746  UNL2746     0.1146
  10983 H          35.7462   10.3525   20.0466 H     2746  UNL2746     0.1146
  10984 H          35.5081   10.9658   18.5579 H     2746  UNL2746     0.1146
  10985 N          35.0206   10.6125   21.6687 N.3   2747  UNL2747    -0.3437
  10986 H          34.5789    9.7407   21.3802 H     2747  UNL2747     0.1146
  10987 H          35.7462   10.3525   22.3353 H     2747  UNL2747     0.1146
  10988 H          35.5081   10.9658   20.8466 H     2747  UNL2747     0.1146
  10989 N          35.0206   10.6125   23.9575 N.3   2748  UNL2748    -0.3437
  10990 H          34.5789    9.7407   23.6690 H     2748  UNL2748     0.1146
  10991 H          35.7462   10.3525   24.6241 H     2748  UNL2748     0.1146
  10992 H          35.5081   10.9658   23.1354 H     2748  UNL2748     0.1146
  10993 N          35.0206   10.6125   26.2462 N.3   2749  UNL2749    -0.3437
  10994 H          34.5789    9.7407   25.9577 H     2749  UNL2749     0.1146
  10995 H          35.7462   10.3525   26.9128 H     2749  UNL2749     0.1146
  10996 H          35.5081   10.9658   25.4241 H     2749  UNL2749     0.1146
  10997 N          35.3541    8.1644   28.4816 N.3   2750  UNL2750    -0.3437
  10998 H          34.3665    8.1326   28.7305 H     2750  UNL2750     0.1146
  10999 H          35.3871    8.4177   27.4951 H     2750  UNL2750     0.1146
  11000 H          35.7460    8.9568   28.9883 H     2750  UNL2750     0.1146
  11001 N          35.2272   13.0496    0.7315 N.3   2751  UNL2751    -0.3437
  11002 H          34.6057   13.3724    1.4718 H     2751  UNL2751     0.1146
  11003 H          36.1333   12.8972    1.1721 H     2751  UNL2751     0.1146
  11004 H          34.8875   12.1275    0.4619 H     2751  UNL2751     0.1146
  11005 N          35.2272   13.0496    3.0203 N.3   2752  UNL2752    -0.3437
  11006 H          34.6057   13.3724    3.7605 H     2752  UNL2752     0.1146
  11007 H          36.1333   12.8972    3.4608 H     2752  UNL2752     0.1146
  11008 H          34.8875   12.1275    2.7506 H     2752  UNL2752     0.1146
  11009 N          35.2272   13.0496    5.3090 N.3   2753  UNL2753    -0.3437
  11010 H          34.6057   13.3724    6.0492 H     2753  UNL2753     0.1146
  11011 H          36.1333   12.8972    5.7495 H     2753  UNL2753     0.1146
  11012 H          34.8875   12.1275    5.0393 H     2753  UNL2753     0.1146
  11013 N          35.2272   13.0496    7.5977 N.3   2754  UNL2754    -0.3437
  11014 H          34.6057   13.3724    8.3379 H     2754  UNL2754     0.1146
  11015 H          36.1333   12.8972    8.0382 H     2754  UNL2754     0.1146
  11016 H          34.8875   12.1275    7.3280 H     2754  UNL2754     0.1146
  11017 N          35.2272   13.0496    9.8864 N.3   2755  UNL2755    -0.3437
  11018 H          34.6057   13.3724   10.6266 H     2755  UNL2755     0.1146
  11019 H          36.1333   12.8972   10.3270 H     2755  UNL2755     0.1146
  11020 H          34.8875   12.1275    9.6167 H     2755  UNL2755     0.1146
  11021 N          35.0206   12.8341   12.1806 N.3   2756  UNL2756    -0.3437
  11022 H          34.5789   13.1247   13.0517 H     2756  UNL2756     0.1146
  11023 H          35.7462   13.5237   11.9899 H     2756  UNL2756     0.1146
  11024 H          35.5081   11.9640   12.3895 H     2756  UNL2756     0.1146
  11025 N          35.0206   12.7000   14.8467 N.3   2757  UNL2757    -0.3437
  11026 H          34.5789   13.2240   14.0926 H     2757  UNL2757     0.1146
  11027 H          35.7462   12.1345   14.4084 H     2757  UNL2757     0.1146
  11028 H          35.5081   13.3881   15.4188 H     2757  UNL2757     0.1146
  11029 N          35.0206   13.0563   17.0913 N.3   2758  UNL2758    -0.3437
  11030 H          34.5789   12.1845   16.8028 H     2758  UNL2758     0.1146
  11031 H          35.7462   12.7963   17.7579 H     2758  UNL2758     0.1146
  11032 H          35.5081   13.4096   16.2692 H     2758  UNL2758     0.1146
  11033 N          35.0206   13.0563   19.3800 N.3   2759  UNL2759    -0.3437
  11034 H          34.5789   12.1845   19.0915 H     2759  UNL2759     0.1146
  11035 H          35.7462   12.7963   20.0466 H     2759  UNL2759     0.1146
  11036 H          35.5081   13.4096   18.5579 H     2759  UNL2759     0.1146
  11037 N          35.0206   12.8341   21.3354 N.3   2760  UNL2760    -0.3437
  11038 H          34.5789   13.1247   22.2065 H     2760  UNL2760     0.1146
  11039 H          35.7462   13.5237   21.1447 H     2760  UNL2760     0.1146
  11040 H          35.5081   11.9640   21.5443 H     2760  UNL2760     0.1146
  11041 N          35.2272   13.0496   23.6187 N.3   2761  UNL2761    -0.3437
  11042 H          34.6057   13.3724   24.3589 H     2761  UNL2761     0.1146
  11043 H          36.1333   12.8972   24.0592 H     2761  UNL2761     0.1146
  11044 H          34.8875   12.1275   23.3490 H     2761  UNL2761     0.1146
  11045 N          34.9841   12.7413   25.9927 N.3   2762  UNL2762    -0.3437
  11046 H          35.1119   12.3581   26.9282 H     2762  UNL2762     0.1146
  11047 H          34.8890   13.7488   26.1124 H     2762  UNL2762     0.1146
  11048 H          35.8687   12.5985   25.5074 H     2762  UNL2762     0.1146
  11049 N          35.2461   10.9350   28.1394 N.3   2763  UNL2763    -0.3437
  11050 H          34.3363   10.5211   28.3375 H     2763  UNL2763     0.1146
  11051 H          35.3332   11.7345   28.7652 H     2763  UNL2763     0.1146
  11052 H          35.9380   10.2560   28.4534 H     2763  UNL2763     0.1146
  11053 N          35.0206   15.5001    1.0703 N.3   2764  UNL2764    -0.3437
  11054 H          34.5789   14.6283    0.7818 H     2764  UNL2764     0.1146
  11055 H          35.7462   15.2401    1.7369 H     2764  UNL2764     0.1146
  11056 H          35.5081   15.8534    0.2482 H     2764  UNL2764     0.1146
  11057 N          35.0206   15.5001    3.3590 N.3   2765  UNL2765    -0.3437
  11058 H          34.5789   14.6283    3.0705 H     2765  UNL2765     0.1146
  11059 H          35.7462   15.2401    4.0256 H     2765  UNL2765     0.1146
  11060 H          35.5081   15.8534    2.5369 H     2765  UNL2765     0.1146
  11061 N          35.0206   15.5001    5.6477 N.3   2766  UNL2766    -0.3437
  11062 H          34.5789   14.6283    5.3592 H     2766  UNL2766     0.1146
  11063 H          35.7462   15.2401    6.3143 H     2766  UNL2766     0.1146
  11064 H          35.5081   15.8534    4.8256 H     2766  UNL2766     0.1146
  11065 N          35.0206   15.5001    7.9365 N.3   2767  UNL2767    -0.3437
  11066 H          34.5789   14.6283    7.6479 H     2767  UNL2767     0.1146
  11067 H          35.7462   15.2401    8.6031 H     2767  UNL2767     0.1146
  11068 H          35.5081   15.8534    7.1144 H     2767  UNL2767     0.1146
  11069 N          35.0206   15.5001   10.2252 N.3   2768  UNL2768    -0.3437
  11070 H          34.5789   14.6283    9.9367 H     2768  UNL2768     0.1146
  11071 H          35.7462   15.2401   10.8918 H     2768  UNL2768     0.1146
  11072 H          35.5081   15.8534    9.4031 H     2768  UNL2768     0.1146
  11073 N          35.0206   15.2779   12.1806 N.3   2769  UNL2769    -0.3437
  11074 H          34.5789   15.5685   13.0517 H     2769  UNL2769     0.1146
  11075 H          35.7462   15.9675   11.9899 H     2769  UNL2769     0.1146
  11076 H          35.5081   14.4078   12.3895 H     2769  UNL2769     0.1146
  11077 N          35.0206   15.1438   14.8467 N.3   2770  UNL2770    -0.3437
  11078 H          34.5789   15.6678   14.0926 H     2770  UNL2770     0.1146
  11079 H          35.7462   14.5784   14.4084 H     2770  UNL2770     0.1146
  11080 H          35.5081   15.8319   15.4188 H     2770  UNL2770     0.1146
  11081 N          35.0206   15.5001   17.0913 N.3   2771  UNL2771    -0.3437
  11082 H          34.5789   14.6283   16.8028 H     2771  UNL2771     0.1146
  11083 H          35.7462   15.2401   17.7579 H     2771  UNL2771     0.1146
  11084 H          35.5081   15.8534   16.2692 H     2771  UNL2771     0.1146
  11085 N          35.0206   15.2779   19.0467 N.3   2772  UNL2772    -0.3437
  11086 H          34.5789   15.5685   19.9178 H     2772  UNL2772     0.1146
  11087 H          35.7462   15.9675   18.8560 H     2772  UNL2772     0.1146
  11088 H          35.5081   14.4078   19.2556 H     2772  UNL2772     0.1146
  11089 N          35.0206   15.1438   21.7128 N.3   2773  UNL2773    -0.3437
  11090 H          34.5789   15.6678   20.9587 H     2773  UNL2773     0.1146
  11091 H          35.7462   14.5784   21.2745 H     2773  UNL2773     0.1146
  11092 H          35.5081   15.8319   22.2849 H     2773  UNL2773     0.1146
  11093 N          35.1507   15.2779   24.1340 N.3   2774  UNL2774    -0.3437
  11094 H          36.1129   15.5685   23.9666 H     2774  UNL2774     0.1146
  11095 H          34.5637   15.9675   23.6668 H     2774  UNL2774     0.1146
  11096 H          35.0263   14.4078   23.6184 H     2774  UNL2774     0.1146
  11097 N          35.1507   15.2779   26.4227 N.3   2775  UNL2775    -0.3437
  11098 H          36.1129   15.5685   26.2553 H     2775  UNL2775     0.1146
  11099 H          34.5637   15.9675   25.9555 H     2775  UNL2775     0.1146
  11100 H          35.0263   14.4078   25.9071 H     2775  UNL2775     0.1146
  11101 N          35.0206   13.5001   28.5349 N.3   2776  UNL2776    -0.3437
  11102 H          34.5789   12.6283   28.2464 H     2776  UNL2776     0.1146
  11103 H          35.7462   13.2401   29.2015 H     2776  UNL2776     0.1146
  11104 H          35.5081   13.8534   27.7128 H     2776  UNL2776     0.1146
  11105 N          35.0206   17.7217    0.7370 N.3   2777  UNL2777    -0.3437
  11106 H          34.5789   18.0123    1.6081 H     2777  UNL2777     0.1146
  11107 H          35.7462   18.4114    0.5463 H     2777  UNL2777     0.1146
  11108 H          35.5081   16.8517    0.9459 H     2777  UNL2777     0.1146
  11109 N          35.2272   17.9372    3.0203 N.3   2778  UNL2778    -0.3437
  11110 H          34.6057   18.2600    3.7605 H     2778  UNL2778     0.1146
  11111 H          36.1333   17.7848    3.4608 H     2778  UNL2778     0.1146
  11112 H          34.8875   17.0151    2.7506 H     2778  UNL2778     0.1146
  11113 N          35.0206   17.7217    5.3144 N.3   2779  UNL2779    -0.3437
  11114 H          34.5789   18.0123    6.1855 H     2779  UNL2779     0.1146
  11115 H          35.7462   18.4114    5.1237 H     2779  UNL2779     0.1146
  11116 H          35.5081   16.8517    5.5233 H     2779  UNL2779     0.1146
  11117 N          35.0206   17.7217    7.6031 N.3   2780  UNL2780    -0.3437
  11118 H          34.5789   18.0123    8.4742 H     2780  UNL2780     0.1146
  11119 H          35.7462   18.4114    7.4124 H     2780  UNL2780     0.1146
  11120 H          35.5081   16.8517    7.8120 H     2780  UNL2780     0.1146
  11121 N          35.2272   17.9372    9.8864 N.3   2781  UNL2781    -0.3437
  11122 H          34.6057   18.2600   10.6266 H     2781  UNL2781     0.1146
  11123 H          36.1333   17.7848   10.3270 H     2781  UNL2781     0.1146
  11124 H          34.8875   17.0151    9.6167 H     2781  UNL2781     0.1146
  11125 N          35.0206   17.7217   12.1806 N.3   2782  UNL2782    -0.3437
  11126 H          34.5789   18.0123   13.0517 H     2782  UNL2782     0.1146
  11127 H          35.7462   18.4114   11.9899 H     2782  UNL2782     0.1146
  11128 H          35.5081   16.8517   12.3895 H     2782  UNL2782     0.1146
  11129 N          35.0206   17.7217   14.4693 N.3   2783  UNL2783    -0.3437
  11130 H          34.5789   18.0123   15.3404 H     2783  UNL2783     0.1146
  11131 H          35.7462   18.4114   14.2786 H     2783  UNL2783     0.1146
  11132 H          35.5081   16.8517   14.6782 H     2783  UNL2783     0.1146
  11133 N          35.2272   17.9372   16.7525 N.3   2784  UNL2784    -0.3437
  11134 H          34.6057   18.2600   17.4928 H     2784  UNL2784     0.1146
  11135 H          36.1333   17.7848   17.1931 H     2784  UNL2784     0.1146
  11136 H          34.8875   17.0151   16.4829 H     2784  UNL2784     0.1146
  11137 N          34.9841   17.6289   19.1265 N.3   2785  UNL2785    -0.3437
  11138 H          35.1119   17.2457   20.0621 H     2785  UNL2785     0.1146
  11139 H          34.8890   18.6364   19.2462 H     2785  UNL2785     0.1146
  11140 H          35.8687   17.4861   18.6413 H     2785  UNL2785     0.1146
  11141 N          35.1507   17.7217   21.8453 N.3   2786  UNL2786    -0.3437
  11142 H          36.1129   18.0123   21.6778 H     2786  UNL2786     0.1146
  11143 H          34.5637   18.4114   21.3781 H     2786  UNL2786     0.1146
  11144 H          35.0263   16.8517   21.3297 H     2786  UNL2786     0.1146
  11145 N          35.0206   17.7217   23.6241 N.3   2787  UNL2787    -0.3437
  11146 H          34.5789   18.0123   24.4952 H     2787  UNL2787     0.1146
  11147 H          35.7462   18.4114   23.4334 H     2787  UNL2787     0.1146
  11148 H          35.5081   16.8517   23.8330 H     2787  UNL2787     0.1146
  11149 N          35.0206   17.9439   26.2462 N.3   2788  UNL2788    -0.3437
  11150 H          34.5789   17.0721   25.9577 H     2788  UNL2788     0.1146
  11151 H          35.7462   17.6839   26.9128 H     2788  UNL2788     0.1146
  11152 H          35.5081   18.2972   25.4241 H     2788  UNL2788     0.1146
  11153 N          35.0206   15.9439   28.5349 N.3   2789  UNL2789    -0.3437
  11154 H          34.5789   15.0721   28.2464 H     2789  UNL2789     0.1146
  11155 H          35.7462   15.6839   29.2015 H     2789  UNL2789     0.1146
  11156 H          35.5081   16.2972   27.7128 H     2789  UNL2789     0.1146
  11157 N          35.0206   20.3877    1.0703 N.3   2790  UNL2790    -0.3437
  11158 H          34.5789   19.5159    0.7818 H     2790  UNL2790     0.1146
  11159 H          35.7462   20.1278    1.7369 H     2790  UNL2790     0.1146
  11160 H          35.5081   20.7410    0.2482 H     2790  UNL2790     0.1146
  11161 N          35.0206   20.3877    3.3590 N.3   2791  UNL2791    -0.3437
  11162 H          34.5789   19.5159    3.0705 H     2791  UNL2791     0.1146
  11163 H          35.7462   20.1278    4.0256 H     2791  UNL2791     0.1146
  11164 H          35.5081   20.7410    2.5369 H     2791  UNL2791     0.1146
  11165 N          35.0206   20.3877    5.6477 N.3   2792  UNL2792    -0.3437
  11166 H          34.5789   19.5159    5.3592 H     2792  UNL2792     0.1146
  11167 H          35.7462   20.1278    6.3143 H     2792  UNL2792     0.1146
  11168 H          35.5081   20.7410    4.8256 H     2792  UNL2792     0.1146
  11169 N          35.0206   20.3877    7.9365 N.3   2793  UNL2793    -0.3437
  11170 H          34.5789   19.5159    7.6479 H     2793  UNL2793     0.1146
  11171 H          35.7462   20.1278    8.6031 H     2793  UNL2793     0.1146
  11172 H          35.5081   20.7410    7.1144 H     2793  UNL2793     0.1146
  11173 N          35.0206   20.3877   10.2252 N.3   2794  UNL2794    -0.3437
  11174 H          34.5789   19.5159    9.9367 H     2794  UNL2794     0.1146
  11175 H          35.7462   20.1278   10.8918 H     2794  UNL2794     0.1146
  11176 H          35.5081   20.7410    9.4031 H     2794  UNL2794     0.1146
  11177 N          34.9841   20.0727   12.2604 N.3   2795  UNL2795    -0.3437
  11178 H          35.1119   19.6895   13.1959 H     2795  UNL2795     0.1146
  11179 H          34.8890   21.0802   12.3801 H     2795  UNL2795     0.1146
  11180 H          35.8687   19.9299   11.7751 H     2795  UNL2795     0.1146
  11181 N          34.9841   20.0727   14.5491 N.3   2796  UNL2796    -0.3437
  11182 H          35.1119   19.6895   15.4846 H     2796  UNL2796     0.1146
  11183 H          34.8890   21.0802   14.6688 H     2796  UNL2796     0.1146
  11184 H          35.8687   19.9299   14.0639 H     2796  UNL2796     0.1146
  11185 N          35.0206   20.3877   17.0913 N.3   2797  UNL2797    -0.3437
  11186 H          34.5789   19.5159   16.8028 H     2797  UNL2797     0.1146
  11187 H          35.7462   20.1278   17.7579 H     2797  UNL2797     0.1146
  11188 H          35.5081   20.7410   16.2692 H     2797  UNL2797     0.1146
  11189 N          35.0206   20.3877   19.3800 N.3   2798  UNL2798    -0.3437
  11190 H          34.5789   19.5159   19.0915 H     2798  UNL2798     0.1146
  11191 H          35.7462   20.1278   20.0466 H     2798  UNL2798     0.1146
  11192 H          35.5081   20.7410   18.5579 H     2798  UNL2798     0.1146
  11193 N          35.0206   20.1656   21.3354 N.3   2799  UNL2799    -0.3437
  11194 H          34.5789   20.4562   22.2065 H     2799  UNL2799     0.1146
  11195 H          35.7462   20.8552   21.1447 H     2799  UNL2799     0.1146
  11196 H          35.5081   19.2955   21.5443 H     2799  UNL2799     0.1146
  11197 N          35.0206   20.0314   24.0016 N.3   2800  UNL2800    -0.3437
  11198 H          34.5789   20.5554   23.2474 H     2800  UNL2800     0.1146
  11199 H          35.7462   19.4660   23.5632 H     2800  UNL2800     0.1146
  11200 H          35.5081   20.7195   24.5736 H     2800  UNL2800     0.1146
  11201 N          35.1507   20.1656   26.4227 N.3   2801  UNL2801    -0.3437
  11202 H          36.1129   20.4562   26.2553 H     2801  UNL2801     0.1146
  11203 H          34.5637   20.8552   25.9555 H     2801  UNL2801     0.1146
  11204 H          35.0263   19.2955   25.9071 H     2801  UNL2801     0.1146
  11205 N          35.2123   18.0781   28.1516 N.3   2802  UNL2802    -0.3437
  11206 H          34.6601   18.9317   28.2212 H     2802  UNL2802     0.1146
  11207 H          36.1482   18.3220   28.4725 H     2802  UNL2802     0.1146
  11208 H          34.8331   17.4406   28.8503 H     2802  UNL2802     0.1146
  11209 N          35.0206   22.8315    1.0703 N.3   2803  UNL2803    -0.3437
  11210 H          34.5789   21.9597    0.7818 H     2803  UNL2803     0.1146
  11211 H          35.7462   22.5716    1.7369 H     2803  UNL2803     0.1146
  11212 H          35.5081   23.1848    0.2482 H     2803  UNL2803     0.1146
  11213 N          35.0206   22.8315    3.3590 N.3   2804  UNL2804    -0.3437
  11214 H          34.5789   21.9597    3.0705 H     2804  UNL2804     0.1146
  11215 H          35.7462   22.5716    4.0256 H     2804  UNL2804     0.1146
  11216 H          35.5081   23.1848    2.5369 H     2804  UNL2804     0.1146
  11217 N          35.0206   22.8315    5.6477 N.3   2805  UNL2805    -0.3437
  11218 H          34.5789   21.9597    5.3592 H     2805  UNL2805     0.1146
  11219 H          35.7462   22.5716    6.3143 H     2805  UNL2805     0.1146
  11220 H          35.5081   23.1848    4.8256 H     2805  UNL2805     0.1146
  11221 N          35.0206   22.8315    7.9365 N.3   2806  UNL2806    -0.3437
  11222 H          34.5789   21.9597    7.6479 H     2806  UNL2806     0.1146
  11223 H          35.7462   22.5716    8.6031 H     2806  UNL2806     0.1146
  11224 H          35.5081   23.1848    7.1144 H     2806  UNL2806     0.1146
  11225 N          35.0206   22.8315   10.2252 N.3   2807  UNL2807    -0.3437
  11226 H          34.5789   21.9597    9.9367 H     2807  UNL2807     0.1146
  11227 H          35.7462   22.5716   10.8918 H     2807  UNL2807     0.1146
  11228 H          35.5081   23.1848    9.4031 H     2807  UNL2807     0.1146
  11229 N          35.0206   22.8315   12.5139 N.3   2808  UNL2808    -0.3437
  11230 H          34.5789   21.9597   12.2254 H     2808  UNL2808     0.1146
  11231 H          35.7462   22.5716   13.1805 H     2808  UNL2808     0.1146
  11232 H          35.5081   23.1848   11.6918 H     2808  UNL2808     0.1146
  11233 N          35.0206   22.8315   14.8026 N.3   2809  UNL2809    -0.3437
  11234 H          34.5789   21.9597   14.5141 H     2809  UNL2809     0.1146
  11235 H          35.7462   22.5716   15.4692 H     2809  UNL2809     0.1146
  11236 H          35.5081   23.1848   13.9805 H     2809  UNL2809     0.1146
  11237 N          35.0206   22.8315   17.0913 N.3   2810  UNL2810    -0.3437
  11238 H          34.5789   21.9597   16.8028 H     2810  UNL2810     0.1146
  11239 H          35.7462   22.5716   17.7579 H     2810  UNL2810     0.1146
  11240 H          35.5081   23.1848   16.2692 H     2810  UNL2810     0.1146
  11241 N          35.0206   22.8315   19.3800 N.3   2811  UNL2811    -0.3437
  11242 H          34.5789   21.9597   19.0915 H     2811  UNL2811     0.1146
  11243 H          35.7462   22.5716   20.0466 H     2811  UNL2811     0.1146
  11244 H          35.5081   23.1848   18.5579 H     2811  UNL2811     0.1146
  11245 N          35.0206   22.8315   21.6687 N.3   2812  UNL2812    -0.3437
  11246 H          34.5789   21.9597   21.3802 H     2812  UNL2812     0.1146
  11247 H          35.7462   22.5716   22.3353 H     2812  UNL2812     0.1146
  11248 H          35.5081   23.1848   20.8466 H     2812  UNL2812     0.1146
  11249 N          35.0206   22.8315   23.9575 N.3   2813  UNL2813    -0.3437
  11250 H          34.5789   21.9597   23.6690 H     2813  UNL2813     0.1146
  11251 H          35.7462   22.5716   24.6241 H     2813  UNL2813     0.1146
  11252 H          35.5081   23.1848   23.1354 H     2813  UNL2813     0.1146
  11253 N          35.0206   22.8315   26.2462 N.3   2814  UNL2814    -0.3437
  11254 H          34.5789   21.9597   25.9577 H     2814  UNL2814     0.1146
  11255 H          35.7462   22.5716   26.9128 H     2814  UNL2814     0.1146
  11256 H          35.5081   23.1848   25.4241 H     2814  UNL2814     0.1146
  11257 N          35.2461   20.7103   28.1394 N.3   2815  UNL2815    -0.3437
  11258 H          34.3363   20.2963   28.3375 H     2815  UNL2815     0.1146
  11259 H          35.3332   21.5098   28.7652 H     2815  UNL2815     0.1146
  11260 H          35.9380   20.0312   28.4534 H     2815  UNL2815     0.1146
  11261 N          34.9651   25.2393    1.2718 N.3   2816  UNL2816    -0.3437
  11262 H          35.3813   25.0207    2.1759 H     2816  UNL2816     0.1146
  11263 H          35.6891   25.7180    0.7378 H     2816  UNL2816     0.1146
  11264 H          34.8182   24.3447    0.8066 H     2816  UNL2816     0.1146
  11265 N          35.0206   24.9191    5.6918 N.3   2817  UNL2817    -0.3437
  11266 H          34.5789   25.4430    4.9377 H     2817  UNL2817     0.1146
  11267 H          35.7462   24.3536    5.2535 H     2817  UNL2817     0.1146
  11268 H          35.5081   25.6071    6.2639 H     2817  UNL2817     0.1146
  11269 N          35.1507   25.0532    8.1130 N.3   2818  UNL2818    -0.3437
  11270 H          36.1129   25.3438    7.9456 H     2818  UNL2818     0.1146
  11271 H          34.5637   25.7428    7.6458 H     2818  UNL2818     0.1146
  11272 H          35.0263   24.1831    7.5974 H     2818  UNL2818     0.1146
  11273 N          35.2272   25.2686    9.8864 N.3   2819  UNL2819    -0.3437
  11274 H          34.6057   25.5914   10.6266 H     2819  UNL2819     0.1146
  11275 H          36.1333   25.1162   10.3270 H     2819  UNL2819     0.1146
  11276 H          34.8875   24.3465    9.6167 H     2819  UNL2819     0.1146
  11277 N          35.0206   25.0532   12.1806 N.3   2820  UNL2820    -0.3437
  11278 H          34.5789   25.3438   13.0517 H     2820  UNL2820     0.1146
  11279 H          35.7462   25.7428   11.9899 H     2820  UNL2820     0.1146
  11280 H          35.5081   24.1831   12.3895 H     2820  UNL2820     0.1146
  11281 N          35.0206   24.9191   14.8467 N.3   2821  UNL2821    -0.3437
  11282 H          34.5789   25.4430   14.0926 H     2821  UNL2821     0.1146
  11283 H          35.7462   24.3536   14.4084 H     2821  UNL2821     0.1146
  11284 H          35.5081   25.6071   15.4188 H     2821  UNL2821     0.1146
  11285 N          35.1507   25.0532   17.2679 N.3   2822  UNL2822    -0.3437
  11286 H          36.1129   25.3438   17.1004 H     2822  UNL2822     0.1146
  11287 H          34.5637   25.7428   16.8007 H     2822  UNL2822     0.1146
  11288 H          35.0263   24.1831   16.7523 H     2822  UNL2822     0.1146
  11289 N          35.2272   25.2686   19.0413 N.3   2823  UNL2823    -0.3437
  11290 H          34.6057   25.5914   19.7815 H     2823  UNL2823     0.1146
  11291 H          36.1333   25.1162   19.4818 H     2823  UNL2823     0.1146
  11292 H          34.8875   24.3465   18.7716 H     2823  UNL2823     0.1146
  11293 N          35.0206   25.0532   21.3354 N.3   2824  UNL2824    -0.3437
  11294 H          34.5789   25.3438   22.2065 H     2824  UNL2824     0.1146
  11295 H          35.7462   25.7428   21.1447 H     2824  UNL2824     0.1146
  11296 H          35.5081   24.1831   21.5443 H     2824  UNL2824     0.1146
  11297 N          35.0206   24.9191   24.0016 N.3   2825  UNL2825    -0.3437
  11298 H          34.5789   25.4430   23.2474 H     2825  UNL2825     0.1146
  11299 H          35.7462   24.3536   23.5632 H     2825  UNL2825     0.1146
  11300 H          35.5081   25.6071   24.5736 H     2825  UNL2825     0.1146
  11301 N          35.0206   25.2753   26.2462 N.3   2826  UNL2826    -0.3437
  11302 H          34.5789   24.4035   25.9577 H     2826  UNL2826     0.1146
  11303 H          35.7462   25.0154   26.9128 H     2826  UNL2826     0.1146
  11304 H          35.5081   25.6286   25.4241 H     2826  UNL2826     0.1146
  11305 N          35.3541   22.8272   28.4816 N.3   2827  UNL2827    -0.3437
  11306 H          34.3665   22.7954   28.7305 H     2827  UNL2827     0.1146
  11307 H          35.3871   23.0805   27.4951 H     2827  UNL2827     0.1146
  11308 H          35.7460   23.6197   28.9883 H     2827  UNL2827     0.1146
  11309 N          35.0206   27.3629    1.1144 N.3   2828  UNL2828    -0.3437
  11310 H          34.5789   27.8868    0.3603 H     2828  UNL2828     0.1146
  11311 H          35.7462   26.7974    0.6761 H     2828  UNL2828     0.1146
  11312 H          35.5081   28.0509    1.6865 H     2828  UNL2828     0.1146
  11313 N          35.0206   27.7191    3.3590 N.3   2829  UNL2829    -0.3437
  11314 H          34.5789   26.8473    3.0705 H     2829  UNL2829     0.1146
  11315 H          35.7462   27.4592    4.0256 H     2829  UNL2829     0.1146
  11316 H          35.5081   28.0724    2.5369 H     2829  UNL2829     0.1146
  11317 N          35.0206   27.7191    5.6477 N.3   2830  UNL2830    -0.3437
  11318 H          34.5789   26.8473    5.3592 H     2830  UNL2830     0.1146
  11319 H          35.7462   27.4592    6.3143 H     2830  UNL2830     0.1146
  11320 H          35.5081   28.0724    4.8256 H     2830  UNL2830     0.1146
  11321 N          35.0206   27.7191    7.9365 N.3   2831  UNL2831    -0.3437
  11322 H          34.5789   26.8473    7.6479 H     2831  UNL2831     0.1146
  11323 H          35.7462   27.4592    8.6031 H     2831  UNL2831     0.1146
  11324 H          35.5081   28.0724    7.1144 H     2831  UNL2831     0.1146
  11325 N          35.0206   27.4970    9.8918 N.3   2832  UNL2832    -0.3437
  11326 H          34.5789   27.7876   10.7629 H     2832  UNL2832     0.1146
  11327 H          35.7462   28.1866    9.7011 H     2832  UNL2832     0.1146
  11328 H          35.5081   26.6269   10.1007 H     2832  UNL2832     0.1146
  11329 N          35.2578   27.3058   12.2090 N.3   2833  UNL2833    -0.3437
  11330 H          34.3133   27.3078   12.5915 H     2833  UNL2833     0.1146
  11331 H          35.3974   28.2290   11.8007 H     2833  UNL2833     0.1146
  11332 H          35.8852   27.2554   13.0103 H     2833  UNL2833     0.1146
  11333 N          35.0206   27.4970   14.4693 N.3   2834  UNL2834    -0.3437
  11334 H          34.5789   27.7876   15.3404 H     2834  UNL2834     0.1146
  11335 H          35.7462   28.1866   14.2786 H     2834  UNL2834     0.1146
  11336 H          35.5081   26.6269   14.6782 H     2834  UNL2834     0.1146
  11337 N          35.0206   27.3629   17.1354 N.3   2835  UNL2835    -0.3437
  11338 H          34.5789   27.8868   16.3813 H     2835  UNL2835     0.1146
  11339 H          35.7462   26.7974   16.6971 H     2835  UNL2835     0.1146
  11340 H          35.5081   28.0509   17.7075 H     2835  UNL2835     0.1146
  11341 N          35.0206   27.4970   19.0467 N.3   2836  UNL2836    -0.3437
  11342 H          34.5789   27.7876   19.9178 H     2836  UNL2836     0.1146
  11343 H          35.7462   28.1866   18.8560 H     2836  UNL2836     0.1146
  11344 H          35.5081   26.6269   19.2556 H     2836  UNL2836     0.1146
  11345 N          35.2578   27.3058   21.3638 N.3   2837  UNL2837    -0.3437
  11346 H          34.3133   27.3078   21.7464 H     2837  UNL2837     0.1146
  11347 H          35.3974   28.2290   20.9556 H     2837  UNL2837     0.1146
  11348 H          35.8852   27.2554   22.1652 H     2837  UNL2837     0.1146
  11349 N          35.2272   27.7124   23.6187 N.3   2838  UNL2838    -0.3437
  11350 H          34.6057   28.0352   24.3589 H     2838  UNL2838     0.1146
  11351 H          36.1333   27.5600   24.0592 H     2838  UNL2838     0.1146
  11352 H          34.8875   26.7903   23.3490 H     2838  UNL2838     0.1146
  11353 N          35.0206   27.4970   25.9128 N.3   2839  UNL2839    -0.3437
  11354 H          34.5789   27.7876   26.7840 H     2839  UNL2839     0.1146
  11355 H          35.7462   28.1866   25.7221 H     2839  UNL2839     0.1146
  11356 H          35.5081   26.6269   26.1217 H     2839  UNL2839     0.1146
  11357 N          35.0206   25.3629   28.5790 N.3   2840  UNL2840    -0.3437
  11358 H          34.5789   25.8868   27.8249 H     2840  UNL2840     0.1146
  11359 H          35.7462   24.7974   28.1406 H     2840  UNL2840     0.1146
  11360 H          35.5081   26.0509   29.1511 H     2840  UNL2840     0.1146
  11361 N          35.0206   30.9408    0.7370 N.3   2841  UNL2841    -0.3437
  11362 H          34.5789   31.2314    1.6081 H     2841  UNL2841     0.1146
  11363 H          35.7462   31.6304    0.5463 H     2841  UNL2841     0.1146
  11364 H          35.5081   30.0707    0.9459 H     2841  UNL2841     0.1146
  11365 N          35.0206   30.9408    3.0257 N.3   2842  UNL2842    -0.3437
  11366 H          34.5789   31.2314    3.8968 H     2842  UNL2842     0.1146
  11367 H          35.7462   31.6304    2.8350 H     2842  UNL2842     0.1146
  11368 H          35.5081   30.0707    3.2346 H     2842  UNL2842     0.1146
  11369 N          35.0206   30.9408    5.3144 N.3   2843  UNL2843    -0.3437
  11370 H          34.5789   31.2314    6.1855 H     2843  UNL2843     0.1146
  11371 H          35.7462   31.6304    5.1237 H     2843  UNL2843     0.1146
  11372 H          35.5081   30.0707    5.5233 H     2843  UNL2843     0.1146
  11373 N          35.2104   30.7107    7.6806 N.3   2844  UNL2844    -0.3437
  11374 H          34.2759   31.0854    7.8375 H     2844  UNL2844     0.1146
  11375 H          35.7243   31.4367    7.1833 H     2844  UNL2844     0.1146
  11376 H          35.6431   30.6405    8.6005 H     2844  UNL2844     0.1146
  11377 N          35.0206   30.9408    9.8918 N.3   2845  UNL2845    -0.3437
  11378 H          34.5789   31.2314   10.7629 H     2845  UNL2845     0.1146
  11379 H          35.7462   31.6304    9.7011 H     2845  UNL2845     0.1146
  11380 H          35.5081   30.0707   10.1007 H     2845  UNL2845     0.1146
  11381 N          35.0206   30.9408   12.1806 N.3   2846  UNL2846    -0.3437
  11382 H          34.5789   31.2314   13.0517 H     2846  UNL2846     0.1146
  11383 H          35.7462   31.6304   11.9899 H     2846  UNL2846     0.1146
  11384 H          35.5081   30.0707   12.3895 H     2846  UNL2846     0.1146
  11385 N          35.1507   29.9408   14.9792 N.3   2847  UNL2847    -0.3437
  11386 H          36.1129   30.2314   14.8117 H     2847  UNL2847     0.1146
  11387 H          34.5637   30.6304   14.5120 H     2847  UNL2847     0.1146
  11388 H          35.0263   29.0707   14.4636 H     2847  UNL2847     0.1146
  11389 N          35.0206   30.9408   16.7580 N.3   2848  UNL2848    -0.3437
  11390 H          34.5789   31.2314   17.6291 H     2848  UNL2848     0.1146
  11391 H          35.7462   31.6304   16.5673 H     2848  UNL2848     0.1146
  11392 H          35.5081   30.0707   16.9669 H     2848  UNL2848     0.1146
  11393 N          35.0206   30.9408   19.0467 N.3   2849  UNL2849    -0.3437
  11394 H          34.5789   31.2314   19.9178 H     2849  UNL2849     0.1146
  11395 H          35.7462   31.6304   18.8560 H     2849  UNL2849     0.1146
  11396 H          35.5081   30.0707   19.2556 H     2849  UNL2849     0.1146
  11397 N          35.0206   30.9408   21.3354 N.3   2850  UNL2850    -0.3437
  11398 H          34.5789   31.2314   22.2065 H     2850  UNL2850     0.1146
  11399 H          35.7462   31.6304   21.1447 H     2850  UNL2850     0.1146
  11400 H          35.5081   30.0707   21.5443 H     2850  UNL2850     0.1146
  11401 N          35.0206   29.9408   23.6241 N.3   2851  UNL2851    -0.3437
  11402 H          34.5789   30.2314   24.4952 H     2851  UNL2851     0.1146
  11403 H          35.7462   30.6304   23.4334 H     2851  UNL2851     0.1146
  11404 H          35.5081   29.0707   23.8330 H     2851  UNL2851     0.1146
  11405 N          35.0206   30.9408   25.9128 N.3   2852  UNL2852    -0.3437
  11406 H          34.5789   31.2314   26.7840 H     2852  UNL2852     0.1146
  11407 H          35.7462   31.6304   25.7221 H     2852  UNL2852     0.1146
  11408 H          35.5081   30.0707   26.1217 H     2852  UNL2852     0.1146
  11409 N          35.0206   29.9408   28.2016 N.3   2853  UNL2853    -0.3437
  11410 H          34.5789   30.2314   29.0727 H     2853  UNL2853     0.1146
  11411 H          35.7462   30.6304   28.0109 H     2853  UNL2853     0.1146
  11412 H          35.5081   29.0707   28.4105 H     2853  UNL2853     0.1146
  11413 N          38.2147    0.8372    1.0703 N.3   2854  UNL2854    -0.3437
  11414 H          37.7730   -0.0346    0.7818 H     2854  UNL2854     0.1146
  11415 H          38.9403    0.5773    1.7369 H     2854  UNL2854     0.1146
  11416 H          38.7022    1.1906    0.2482 H     2854  UNL2854     0.1146
  11417 N          38.2147    0.8372    3.3590 N.3   2855  UNL2855    -0.3437
  11418 H          37.7730   -0.0346    3.0705 H     2855  UNL2855     0.1146
  11419 H          38.9403    0.5773    4.0256 H     2855  UNL2855     0.1146
  11420 H          38.7022    1.1906    2.5369 H     2855  UNL2855     0.1146
  11421 N          38.2147    0.8372    5.6477 N.3   2856  UNL2856    -0.3437
  11422 H          37.7730   -0.0346    5.3592 H     2856  UNL2856     0.1146
  11423 H          38.9403    0.5773    6.3143 H     2856  UNL2856     0.1146
  11424 H          38.7022    1.1906    4.8256 H     2856  UNL2856     0.1146
  11425 N          38.2147    0.8372    7.9365 N.3   2857  UNL2857    -0.3437
  11426 H          37.7730   -0.0346    7.6479 H     2857  UNL2857     0.1146
  11427 H          38.9403    0.5773    8.6031 H     2857  UNL2857     0.1146
  11428 H          38.7022    1.1906    7.1144 H     2857  UNL2857     0.1146
  11429 N          38.2147    0.8372   10.2252 N.3   2858  UNL2858    -0.3437
  11430 H          37.7730   -0.0346    9.9367 H     2858  UNL2858     0.1146
  11431 H          38.9403    0.5773   10.8918 H     2858  UNL2858     0.1146
  11432 H          38.7022    1.1906    9.4031 H     2858  UNL2858     0.1146
  11433 N          38.2147    0.8372   12.5139 N.3   2859  UNL2859    -0.3437
  11434 H          37.7730   -0.0346   12.2254 H     2859  UNL2859     0.1146
  11435 H          38.9403    0.5773   13.1805 H     2859  UNL2859     0.1146
  11436 H          38.7022    1.1906   11.6918 H     2859  UNL2859     0.1146
  11437 N          38.2147    0.8372   14.8026 N.3   2860  UNL2860    -0.3437
  11438 H          37.7730   -0.0346   14.5141 H     2860  UNL2860     0.1146
  11439 H          38.9403    0.5773   15.4692 H     2860  UNL2860     0.1146
  11440 H          38.7022    1.1906   13.9805 H     2860  UNL2860     0.1146
  11441 N          38.2147    0.8372   17.0913 N.3   2861  UNL2861    -0.3437
  11442 H          37.7730   -0.0346   16.8028 H     2861  UNL2861     0.1146
  11443 H          38.9403    0.5773   17.7579 H     2861  UNL2861     0.1146
  11444 H          38.7022    1.1906   16.2692 H     2861  UNL2861     0.1146
  11445 N          38.2147    0.8372   19.3800 N.3   2862  UNL2862    -0.3437
  11446 H          37.7730   -0.0346   19.0915 H     2862  UNL2862     0.1146
  11447 H          38.9403    0.5773   20.0466 H     2862  UNL2862     0.1146
  11448 H          38.7022    1.1906   18.5579 H     2862  UNL2862     0.1146
  11449 N          38.2147    0.8372   21.6687 N.3   2863  UNL2863    -0.3437
  11450 H          37.7730   -0.0346   21.3802 H     2863  UNL2863     0.1146
  11451 H          38.9403    0.5773   22.3353 H     2863  UNL2863     0.1146
  11452 H          38.7022    1.1906   20.8466 H     2863  UNL2863     0.1146
  11453 N          38.2147    0.8372   23.9575 N.3   2864  UNL2864    -0.3437
  11454 H          37.7730   -0.0346   23.6690 H     2864  UNL2864     0.1146
  11455 H          38.9403    0.5773   24.6241 H     2864  UNL2864     0.1146
  11456 H          38.7022    1.1906   23.1354 H     2864  UNL2864     0.1146
  11457 N          38.2147    0.8372   26.2462 N.3   2865  UNL2865    -0.3437
  11458 H          37.7730   -0.0346   25.9577 H     2865  UNL2865     0.1146
  11459 H          38.9403    0.5773   26.9128 H     2865  UNL2865     0.1146
  11460 H          38.7022    1.1906   25.4241 H     2865  UNL2865     0.1146
  11461 N          38.1593    0.8013   28.4477 N.3   2866  UNL2866    -0.3437
  11462 H          38.5754    0.5827   29.3518 H     2866  UNL2866     0.1146
  11463 H          38.8832    1.2799   27.9136 H     2866  UNL2866     0.1146
  11464 H          38.0123   -0.0933   27.9824 H     2866  UNL2866     0.1146
  11465 N          38.2147    3.2810    1.0703 N.3   2867  UNL2867    -0.3437
  11466 H          37.7730    2.4092    0.7818 H     2867  UNL2867     0.1146
  11467 H          38.9403    3.0211    1.7369 H     2867  UNL2867     0.1146
  11468 H          38.7022    3.6344    0.2482 H     2867  UNL2867     0.1146
  11469 N          38.2147    3.2810    3.3590 N.3   2868  UNL2868    -0.3437
  11470 H          37.7730    2.4092    3.0705 H     2868  UNL2868     0.1146
  11471 H          38.9403    3.0211    4.0256 H     2868  UNL2868     0.1146
  11472 H          38.7022    3.6344    2.5369 H     2868  UNL2868     0.1146
  11473 N          38.2147    3.2810    5.6477 N.3   2869  UNL2869    -0.3437
  11474 H          37.7730    2.4092    5.3592 H     2869  UNL2869     0.1146
  11475 H          38.9403    3.0211    6.3143 H     2869  UNL2869     0.1146
  11476 H          38.7022    3.6344    4.8256 H     2869  UNL2869     0.1146
  11477 N          38.2147    3.2810    7.9365 N.3   2870  UNL2870    -0.3437
  11478 H          37.7730    2.4092    7.6479 H     2870  UNL2870     0.1146
  11479 H          38.9403    3.0211    8.6031 H     2870  UNL2870     0.1146
  11480 H          38.7022    3.6344    7.1144 H     2870  UNL2870     0.1146
  11481 N          38.2147    3.2810   10.2252 N.3   2871  UNL2871    -0.3437
  11482 H          37.7730    2.4092    9.9367 H     2871  UNL2871     0.1146
  11483 H          38.9403    3.0211   10.8918 H     2871  UNL2871     0.1146
  11484 H          38.7022    3.6344    9.4031 H     2871  UNL2871     0.1146
  11485 N          38.2147    3.2810   12.5139 N.3   2872  UNL2872    -0.3437
  11486 H          37.7730    2.4092   12.2254 H     2872  UNL2872     0.1146
  11487 H          38.9403    3.0211   13.1805 H     2872  UNL2872     0.1146
  11488 H          38.7022    3.6344   11.6918 H     2872  UNL2872     0.1146
  11489 N          38.2147    3.2810   14.8026 N.3   2873  UNL2873    -0.3437
  11490 H          37.7730    2.4092   14.5141 H     2873  UNL2873     0.1146
  11491 H          38.9403    3.0211   15.4692 H     2873  UNL2873     0.1146
  11492 H          38.7022    3.6344   13.9805 H     2873  UNL2873     0.1146
  11493 N          38.2147    3.2810   17.0913 N.3   2874  UNL2874    -0.3437
  11494 H          37.7730    2.4092   16.8028 H     2874  UNL2874     0.1146
  11495 H          38.9403    3.0211   17.7579 H     2874  UNL2874     0.1146
  11496 H          38.7022    3.6344   16.2692 H     2874  UNL2874     0.1146
  11497 N          38.2147    3.2810   19.3800 N.3   2875  UNL2875    -0.3437
  11498 H          37.7730    2.4092   19.0915 H     2875  UNL2875     0.1146
  11499 H          38.9403    3.0211   20.0466 H     2875  UNL2875     0.1146
  11500 H          38.7022    3.6344   18.5579 H     2875  UNL2875     0.1146
  11501 N          38.2147    3.2810   21.6687 N.3   2876  UNL2876    -0.3437
  11502 H          37.7730    2.4092   21.3802 H     2876  UNL2876     0.1146
  11503 H          38.9403    3.0211   22.3353 H     2876  UNL2876     0.1146
  11504 H          38.7022    3.6344   20.8466 H     2876  UNL2876     0.1146
  11505 N          38.2147    3.2810   23.9575 N.3   2877  UNL2877    -0.3437
  11506 H          37.7730    2.4092   23.6690 H     2877  UNL2877     0.1146
  11507 H          38.9403    3.0211   24.6241 H     2877  UNL2877     0.1146
  11508 H          38.7022    3.6344   23.1354 H     2877  UNL2877     0.1146
  11509 N          38.2147    3.2810   26.2462 N.3   2878  UNL2878    -0.3437
  11510 H          37.7730    2.4092   25.9577 H     2878  UNL2878     0.1146
  11511 H          38.9403    3.0211   26.9128 H     2878  UNL2878     0.1146
  11512 H          38.7022    3.6344   25.4241 H     2878  UNL2878     0.1146
  11513 N          37.3449    3.0589   29.7114 N.3   2879  UNL2879    -0.3437
  11514 H          38.3071    3.3495   29.5440 H     2879  UNL2879     0.1146
  11515 H          36.7578    3.7485   29.2443 H     2879  UNL2879     0.1146
  11516 H          37.2205    2.1888   29.1959 H     2879  UNL2879     0.1146
  11517 N          38.2147    5.7248    1.0703 N.3   2880  UNL2880    -0.3437
  11518 H          37.7730    4.8530    0.7818 H     2880  UNL2880     0.1146
  11519 H          38.9403    5.4649    1.7369 H     2880  UNL2880     0.1146
  11520 H          38.7022    6.0782    0.2482 H     2880  UNL2880     0.1146
  11521 N          38.2147    5.7248    3.3590 N.3   2881  UNL2881    -0.3437
  11522 H          37.7730    4.8530    3.0705 H     2881  UNL2881     0.1146
  11523 H          38.9403    5.4649    4.0256 H     2881  UNL2881     0.1146
  11524 H          38.7022    6.0782    2.5369 H     2881  UNL2881     0.1146
  11525 N          38.2147    5.7248    5.6477 N.3   2882  UNL2882    -0.3437
  11526 H          37.7730    4.8530    5.3592 H     2882  UNL2882     0.1146
  11527 H          38.9403    5.4649    6.3143 H     2882  UNL2882     0.1146
  11528 H          38.7022    6.0782    4.8256 H     2882  UNL2882     0.1146
  11529 N          38.2147    5.7248    7.9365 N.3   2883  UNL2883    -0.3437
  11530 H          37.7730    4.8530    7.6479 H     2883  UNL2883     0.1146
  11531 H          38.9403    5.4649    8.6031 H     2883  UNL2883     0.1146
  11532 H          38.7022    6.0782    7.1144 H     2883  UNL2883     0.1146
  11533 N          38.2147    5.7248   10.2252 N.3   2884  UNL2884    -0.3437
  11534 H          37.7730    4.8530    9.9367 H     2884  UNL2884     0.1146
  11535 H          38.9403    5.4649   10.8918 H     2884  UNL2884     0.1146
  11536 H          38.7022    6.0782    9.4031 H     2884  UNL2884     0.1146
  11537 N          38.2147    5.7248   12.5139 N.3   2885  UNL2885    -0.3437
  11538 H          37.7730    4.8530   12.2254 H     2885  UNL2885     0.1146
  11539 H          38.9403    5.4649   13.1805 H     2885  UNL2885     0.1146
  11540 H          38.7022    6.0782   11.6918 H     2885  UNL2885     0.1146
  11541 N          38.2147    5.7248   14.8026 N.3   2886  UNL2886    -0.3437
  11542 H          37.7730    4.8530   14.5141 H     2886  UNL2886     0.1146
  11543 H          38.9403    5.4649   15.4692 H     2886  UNL2886     0.1146
  11544 H          38.7022    6.0782   13.9805 H     2886  UNL2886     0.1146
  11545 N          38.2147    5.7248   17.0913 N.3   2887  UNL2887    -0.3437
  11546 H          37.7730    4.8530   16.8028 H     2887  UNL2887     0.1146
  11547 H          38.9403    5.4649   17.7579 H     2887  UNL2887     0.1146
  11548 H          38.7022    6.0782   16.2692 H     2887  UNL2887     0.1146
  11549 N          38.2147    5.7248   19.3800 N.3   2888  UNL2888    -0.3437
  11550 H          37.7730    4.8530   19.0915 H     2888  UNL2888     0.1146
  11551 H          38.9403    5.4649   20.0466 H     2888  UNL2888     0.1146
  11552 H          38.7022    6.0782   18.5579 H     2888  UNL2888     0.1146
  11553 N          38.2147    5.7248   21.6687 N.3   2889  UNL2889    -0.3437
  11554 H          37.7730    4.8530   21.3802 H     2889  UNL2889     0.1146
  11555 H          38.9403    5.4649   22.3353 H     2889  UNL2889     0.1146
  11556 H          38.7022    6.0782   20.8466 H     2889  UNL2889     0.1146
  11557 N          38.2147    5.7248   23.9575 N.3   2890  UNL2890    -0.3437
  11558 H          37.7730    4.8530   23.6690 H     2890  UNL2890     0.1146
  11559 H          38.9403    5.4649   24.6241 H     2890  UNL2890     0.1146
  11560 H          38.7022    6.0782   23.1354 H     2890  UNL2890     0.1146
  11561 N          38.2147    5.7248   26.2462 N.3   2891  UNL2891    -0.3437
  11562 H          37.7730    4.8530   25.9577 H     2891  UNL2891     0.1146
  11563 H          38.9403    5.4649   26.9128 H     2891  UNL2891     0.1146
  11564 H          38.7022    6.0782   25.4241 H     2891  UNL2891     0.1146
  11565 N          38.2147    3.5027   28.2016 N.3   2892  UNL2892    -0.3437
  11566 H          37.7730    3.7933   29.0727 H     2892  UNL2892     0.1146
  11567 H          38.9403    4.1923   28.0109 H     2892  UNL2892     0.1146
  11568 H          38.7022    2.6326   28.4105 H     2892  UNL2892     0.1146
  11569 N          38.2147    8.1686    1.0703 N.3   2893  UNL2893    -0.3437
  11570 H          37.7730    7.2968    0.7818 H     2893  UNL2893     0.1146
  11571 H          38.9403    7.9087    1.7369 H     2893  UNL2893     0.1146
  11572 H          38.7022    8.5220    0.2482 H     2893  UNL2893     0.1146
  11573 N          38.2147    8.1686    3.3590 N.3   2894  UNL2894    -0.3437
  11574 H          37.7730    7.2968    3.0705 H     2894  UNL2894     0.1146
  11575 H          38.9403    7.9087    4.0256 H     2894  UNL2894     0.1146
  11576 H          38.7022    8.5220    2.5369 H     2894  UNL2894     0.1146
  11577 N          38.2147    8.1686    5.6477 N.3   2895  UNL2895    -0.3437
  11578 H          37.7730    7.2968    5.3592 H     2895  UNL2895     0.1146
  11579 H          38.9403    7.9087    6.3143 H     2895  UNL2895     0.1146
  11580 H          38.7022    8.5220    4.8256 H     2895  UNL2895     0.1146
  11581 N          38.2147    8.1686    7.9365 N.3   2896  UNL2896    -0.3437
  11582 H          37.7730    7.2968    7.6479 H     2896  UNL2896     0.1146
  11583 H          38.9403    7.9087    8.6031 H     2896  UNL2896     0.1146
  11584 H          38.7022    8.5220    7.1144 H     2896  UNL2896     0.1146
  11585 N          38.2147    8.1686   10.2252 N.3   2897  UNL2897    -0.3437
  11586 H          37.7730    7.2968    9.9367 H     2897  UNL2897     0.1146
  11587 H          38.9403    7.9087   10.8918 H     2897  UNL2897     0.1146
  11588 H          38.7022    8.5220    9.4031 H     2897  UNL2897     0.1146
  11589 N          38.2147    8.1686   12.5139 N.3   2898  UNL2898    -0.3437
  11590 H          37.7730    7.2968   12.2254 H     2898  UNL2898     0.1146
  11591 H          38.9403    7.9087   13.1805 H     2898  UNL2898     0.1146
  11592 H          38.7022    8.5220   11.6918 H     2898  UNL2898     0.1146
  11593 N          38.2147    8.1686   14.8026 N.3   2899  UNL2899    -0.3437
  11594 H          37.7730    7.2968   14.5141 H     2899  UNL2899     0.1146
  11595 H          38.9403    7.9087   15.4692 H     2899  UNL2899     0.1146
  11596 H          38.7022    8.5220   13.9805 H     2899  UNL2899     0.1146
  11597 N          38.2147    8.1686   17.0913 N.3   2900  UNL2900    -0.3437
  11598 H          37.7730    7.2968   16.8028 H     2900  UNL2900     0.1146
  11599 H          38.9403    7.9087   17.7579 H     2900  UNL2900     0.1146
  11600 H          38.7022    8.5220   16.2692 H     2900  UNL2900     0.1146
  11601 N          38.2147    8.1686   19.3800 N.3   2901  UNL2901    -0.3437
  11602 H          37.7730    7.2968   19.0915 H     2901  UNL2901     0.1146
  11603 H          38.9403    7.9087   20.0466 H     2901  UNL2901     0.1146
  11604 H          38.7022    8.5220   18.5579 H     2901  UNL2901     0.1146
  11605 N          38.2147    8.1686   21.6687 N.3   2902  UNL2902    -0.3437
  11606 H          37.7730    7.2968   21.3802 H     2902  UNL2902     0.1146
  11607 H          38.9403    7.9087   22.3353 H     2902  UNL2902     0.1146
  11608 H          38.7022    8.5220   20.8466 H     2902  UNL2902     0.1146
  11609 N          38.2147    8.1686   23.9575 N.3   2903  UNL2903    -0.3437
  11610 H          37.7730    7.2968   23.6690 H     2903  UNL2903     0.1146
  11611 H          38.9403    7.9087   24.6241 H     2903  UNL2903     0.1146
  11612 H          38.7022    8.5220   23.1354 H     2903  UNL2903     0.1146
  11613 N          38.2147    8.1686   26.2462 N.3   2904  UNL2904    -0.3437
  11614 H          37.7730    7.2968   25.9577 H     2904  UNL2904     0.1146
  11615 H          38.9403    7.9087   26.9128 H     2904  UNL2904     0.1146
  11616 H          38.7022    8.5220   25.4241 H     2904  UNL2904     0.1146
  11617 N          38.2147    7.9465   29.2016 N.3   2905  UNL2905    -0.3437
  11618 H          37.7730    8.2371   30.0727 H     2905  UNL2905     0.1146
  11619 H          38.9403    8.6361   29.0109 H     2905  UNL2905     0.1146
  11620 H          38.7022    7.0764   29.4105 H     2905  UNL2905     0.1146
  11621 N          38.2147   10.6125    1.0703 N.3   2906  UNL2906    -0.3437
  11622 H          37.7730    9.7407    0.7818 H     2906  UNL2906     0.1146
  11623 H          38.9403   10.3525    1.7369 H     2906  UNL2906     0.1146
  11624 H          38.7022   10.9658    0.2482 H     2906  UNL2906     0.1146
  11625 N          38.2147   10.6125    3.3590 N.3   2907  UNL2907    -0.3437
  11626 H          37.7730    9.7407    3.0705 H     2907  UNL2907     0.1146
  11627 H          38.9403   10.3525    4.0256 H     2907  UNL2907     0.1146
  11628 H          38.7022   10.9658    2.5369 H     2907  UNL2907     0.1146
  11629 N          38.2147   10.6125    5.6477 N.3   2908  UNL2908    -0.3437
  11630 H          37.7730    9.7407    5.3592 H     2908  UNL2908     0.1146
  11631 H          38.9403   10.3525    6.3143 H     2908  UNL2908     0.1146
  11632 H          38.7022   10.9658    4.8256 H     2908  UNL2908     0.1146
  11633 N          38.2147   10.6125    7.9365 N.3   2909  UNL2909    -0.3437
  11634 H          37.7730    9.7407    7.6479 H     2909  UNL2909     0.1146
  11635 H          38.9403   10.3525    8.6031 H     2909  UNL2909     0.1146
  11636 H          38.7022   10.9658    7.1144 H     2909  UNL2909     0.1146
  11637 N          38.2147   10.6125   10.2252 N.3   2910  UNL2910    -0.3437
  11638 H          37.7730    9.7407    9.9367 H     2910  UNL2910     0.1146
  11639 H          38.9403   10.3525   10.8918 H     2910  UNL2910     0.1146
  11640 H          38.7022   10.9658    9.4031 H     2910  UNL2910     0.1146
  11641 N          38.2147   10.6125   12.5139 N.3   2911  UNL2911    -0.3437
  11642 H          37.7730    9.7407   12.2254 H     2911  UNL2911     0.1146
  11643 H          38.9403   10.3525   13.1805 H     2911  UNL2911     0.1146
  11644 H          38.7022   10.9658   11.6918 H     2911  UNL2911     0.1146
  11645 N          38.2147   10.6125   14.8026 N.3   2912  UNL2912    -0.3437
  11646 H          37.7730    9.7407   14.5141 H     2912  UNL2912     0.1146
  11647 H          38.9403   10.3525   15.4692 H     2912  UNL2912     0.1146
  11648 H          38.7022   10.9658   13.9805 H     2912  UNL2912     0.1146
  11649 N          38.2147   10.6125   17.0913 N.3   2913  UNL2913    -0.3437
  11650 H          37.7730    9.7407   16.8028 H     2913  UNL2913     0.1146
  11651 H          38.9403   10.3525   17.7579 H     2913  UNL2913     0.1146
  11652 H          38.7022   10.9658   16.2692 H     2913  UNL2913     0.1146
  11653 N          38.2147   10.6125   19.3800 N.3   2914  UNL2914    -0.3437
  11654 H          37.7730    9.7407   19.0915 H     2914  UNL2914     0.1146
  11655 H          38.9403   10.3525   20.0466 H     2914  UNL2914     0.1146
  11656 H          38.7022   10.9658   18.5579 H     2914  UNL2914     0.1146
  11657 N          38.2147   10.6125   21.6687 N.3   2915  UNL2915    -0.3437
  11658 H          37.7730    9.7407   21.3802 H     2915  UNL2915     0.1146
  11659 H          38.9403   10.3525   22.3353 H     2915  UNL2915     0.1146
  11660 H          38.7022   10.9658   20.8466 H     2915  UNL2915     0.1146
  11661 N          38.2147   10.6125   23.9575 N.3   2916  UNL2916    -0.3437
  11662 H          37.7730    9.7407   23.6690 H     2916  UNL2916     0.1146
  11663 H          38.9403   10.3525   24.6241 H     2916  UNL2916     0.1146
  11664 H          38.7022   10.9658   23.1354 H     2916  UNL2916     0.1146
  11665 N          38.2147   10.6125   26.2462 N.3   2917  UNL2917    -0.3437
  11666 H          37.7730    9.7407   25.9577 H     2917  UNL2917     0.1146
  11667 H          38.9403   10.3525   26.9128 H     2917  UNL2917     0.1146
  11668 H          38.7022   10.9658   25.4241 H     2917  UNL2917     0.1146
  11669 N          38.1593   10.5765   28.4477 N.3   2918  UNL2918    -0.3437
  11670 H          38.5754   10.3579   29.3518 H     2918  UNL2918     0.1146
  11671 H          38.8832   11.0552   27.9136 H     2918  UNL2918     0.1146
  11672 H          38.0123    9.6819   27.9824 H     2918  UNL2918     0.1146
  11673 N          38.2147   13.0563    1.0703 N.3   2919  UNL2919    -0.3437
  11674 H          37.7730   12.1845    0.7818 H     2919  UNL2919     0.1146
  11675 H          38.9403   12.7963    1.7369 H     2919  UNL2919     0.1146
  11676 H          38.7022   13.4096    0.2482 H     2919  UNL2919     0.1146
  11677 N          38.2147   13.0563    3.3590 N.3   2920  UNL2920    -0.3437
  11678 H          37.7730   12.1845    3.0705 H     2920  UNL2920     0.1146
  11679 H          38.9403   12.7963    4.0256 H     2920  UNL2920     0.1146
  11680 H          38.7022   13.4096    2.5369 H     2920  UNL2920     0.1146
  11681 N          38.2147   13.0563    5.6477 N.3   2921  UNL2921    -0.3437
  11682 H          37.7730   12.1845    5.3592 H     2921  UNL2921     0.1146
  11683 H          38.9403   12.7963    6.3143 H     2921  UNL2921     0.1146
  11684 H          38.7022   13.4096    4.8256 H     2921  UNL2921     0.1146
  11685 N          38.2147   13.0563    7.9365 N.3   2922  UNL2922    -0.3437
  11686 H          37.7730   12.1845    7.6479 H     2922  UNL2922     0.1146
  11687 H          38.9403   12.7963    8.6031 H     2922  UNL2922     0.1146
  11688 H          38.7022   13.4096    7.1144 H     2922  UNL2922     0.1146
  11689 N          38.2147   13.0563   10.2252 N.3   2923  UNL2923    -0.3437
  11690 H          37.7730   12.1845    9.9367 H     2923  UNL2923     0.1146
  11691 H          38.9403   12.7963   10.8918 H     2923  UNL2923     0.1146
  11692 H          38.7022   13.4096    9.4031 H     2923  UNL2923     0.1146
  11693 N          38.2147   13.0563   12.5139 N.3   2924  UNL2924    -0.3437
  11694 H          37.7730   12.1845   12.2254 H     2924  UNL2924     0.1146
  11695 H          38.9403   12.7963   13.1805 H     2924  UNL2924     0.1146
  11696 H          38.7022   13.4096   11.6918 H     2924  UNL2924     0.1146
  11697 N          38.2147   13.0563   14.8026 N.3   2925  UNL2925    -0.3437
  11698 H          37.7730   12.1845   14.5141 H     2925  UNL2925     0.1146
  11699 H          38.9403   12.7963   15.4692 H     2925  UNL2925     0.1146
  11700 H          38.7022   13.4096   13.9805 H     2925  UNL2925     0.1146
  11701 N          38.2147   13.0563   17.0913 N.3   2926  UNL2926    -0.3437
  11702 H          37.7730   12.1845   16.8028 H     2926  UNL2926     0.1146
  11703 H          38.9403   12.7963   17.7579 H     2926  UNL2926     0.1146
  11704 H          38.7022   13.4096   16.2692 H     2926  UNL2926     0.1146
  11705 N          38.2147   13.0563   19.3800 N.3   2927  UNL2927    -0.3437
  11706 H          37.7730   12.1845   19.0915 H     2927  UNL2927     0.1146
  11707 H          38.9403   12.7963   20.0466 H     2927  UNL2927     0.1146
  11708 H          38.7022   13.4096   18.5579 H     2927  UNL2927     0.1146
  11709 N          38.2147   13.0563   21.6687 N.3   2928  UNL2928    -0.3437
  11710 H          37.7730   12.1845   21.3802 H     2928  UNL2928     0.1146
  11711 H          38.9403   12.7963   22.3353 H     2928  UNL2928     0.1146
  11712 H          38.7022   13.4096   20.8466 H     2928  UNL2928     0.1146
  11713 N          38.2147   13.0563   23.9575 N.3   2929  UNL2929    -0.3437
  11714 H          37.7730   12.1845   23.6690 H     2929  UNL2929     0.1146
  11715 H          38.9403   12.7963   24.6241 H     2929  UNL2929     0.1146
  11716 H          38.7022   13.4096   23.1354 H     2929  UNL2929     0.1146
  11717 N          38.2147   13.0563   26.2462 N.3   2930  UNL2930    -0.3437
  11718 H          37.7730   12.1845   25.9577 H     2930  UNL2930     0.1146
  11719 H          38.9403   12.7963   26.9128 H     2930  UNL2930     0.1146
  11720 H          38.7022   13.4096   25.4241 H     2930  UNL2930     0.1146
  11721 N          37.3924   13.0885   29.2350 N.3   2931  UNL2931    -0.3437
  11722 H          36.5864   13.0387   29.8564 H     2931  UNL2931     0.1146
  11723 H          38.2112   13.1334   29.8400 H     2931  UNL2931     0.1146
  11724 H          37.4403   12.1861   28.7641 H     2931  UNL2931     0.1146
  11725 N          38.2147   15.5001    1.0703 N.3   2932  UNL2932    -0.3437
  11726 H          37.7730   14.6283    0.7818 H     2932  UNL2932     0.1146
  11727 H          38.9403   15.2401    1.7369 H     2932  UNL2932     0.1146
  11728 H          38.7022   15.8534    0.2482 H     2932  UNL2932     0.1146
  11729 N          38.2147   15.5001    3.3590 N.3   2933  UNL2933    -0.3437
  11730 H          37.7730   14.6283    3.0705 H     2933  UNL2933     0.1146
  11731 H          38.9403   15.2401    4.0256 H     2933  UNL2933     0.1146
  11732 H          38.7022   15.8534    2.5369 H     2933  UNL2933     0.1146
  11733 N          38.2147   15.5001    5.6477 N.3   2934  UNL2934    -0.3437
  11734 H          37.7730   14.6283    5.3592 H     2934  UNL2934     0.1146
  11735 H          38.9403   15.2401    6.3143 H     2934  UNL2934     0.1146
  11736 H          38.7022   15.8534    4.8256 H     2934  UNL2934     0.1146
  11737 N          38.2147   15.5001    7.9365 N.3   2935  UNL2935    -0.3437
  11738 H          37.7730   14.6283    7.6479 H     2935  UNL2935     0.1146
  11739 H          38.9403   15.2401    8.6031 H     2935  UNL2935     0.1146
  11740 H          38.7022   15.8534    7.1144 H     2935  UNL2935     0.1146
  11741 N          38.2147   15.5001   10.2252 N.3   2936  UNL2936    -0.3437
  11742 H          37.7730   14.6283    9.9367 H     2936  UNL2936     0.1146
  11743 H          38.9403   15.2401   10.8918 H     2936  UNL2936     0.1146
  11744 H          38.7022   15.8534    9.4031 H     2936  UNL2936     0.1146
  11745 N          38.2147   15.5001   12.5139 N.3   2937  UNL2937    -0.3437
  11746 H          37.7730   14.6283   12.2254 H     2937  UNL2937     0.1146
  11747 H          38.9403   15.2401   13.1805 H     2937  UNL2937     0.1146
  11748 H          38.7022   15.8534   11.6918 H     2937  UNL2937     0.1146
  11749 N          38.2147   15.5001   14.8026 N.3   2938  UNL2938    -0.3437
  11750 H          37.7730   14.6283   14.5141 H     2938  UNL2938     0.1146
  11751 H          38.9403   15.2401   15.4692 H     2938  UNL2938     0.1146
  11752 H          38.7022   15.8534   13.9805 H     2938  UNL2938     0.1146
  11753 N          38.2147   15.5001   17.0913 N.3   2939  UNL2939    -0.3437
  11754 H          37.7730   14.6283   16.8028 H     2939  UNL2939     0.1146
  11755 H          38.9403   15.2401   17.7579 H     2939  UNL2939     0.1146
  11756 H          38.7022   15.8534   16.2692 H     2939  UNL2939     0.1146
  11757 N          38.2147   15.5001   19.3800 N.3   2940  UNL2940    -0.3437
  11758 H          37.7730   14.6283   19.0915 H     2940  UNL2940     0.1146
  11759 H          38.9403   15.2401   20.0466 H     2940  UNL2940     0.1146
  11760 H          38.7022   15.8534   18.5579 H     2940  UNL2940     0.1146
  11761 N          38.2147   15.5001   21.6687 N.3   2941  UNL2941    -0.3437
  11762 H          37.7730   14.6283   21.3802 H     2941  UNL2941     0.1146
  11763 H          38.9403   15.2401   22.3353 H     2941  UNL2941     0.1146
  11764 H          38.7022   15.8534   20.8466 H     2941  UNL2941     0.1146
  11765 N          38.2147   15.5001   23.9575 N.3   2942  UNL2942    -0.3437
  11766 H          37.7730   14.6283   23.6690 H     2942  UNL2942     0.1146
  11767 H          38.9403   15.2401   24.6241 H     2942  UNL2942     0.1146
  11768 H          38.7022   15.8534   23.1354 H     2942  UNL2942     0.1146
  11769 N          38.2147   15.5001   26.2462 N.3   2943  UNL2943    -0.3437
  11770 H          37.7730   14.6283   25.9577 H     2943  UNL2943     0.1146
  11771 H          38.9403   15.2401   26.9128 H     2943  UNL2943     0.1146
  11772 H          38.7022   15.8534   25.4241 H     2943  UNL2943     0.1146
  11773 N          38.5450   15.1674   29.2016 N.3   2944  UNL2944    -0.3437
  11774 H          38.5765   14.6397   30.0727 H     2944  UNL2944     0.1146
  11775 H          37.5583   15.3361   29.0109 H     2944  UNL2944     0.1146
  11776 H          38.9504   16.0787   29.4105 H     2944  UNL2944     0.1146
  11777 N          38.2147   17.9439    1.0703 N.3   2945  UNL2945    -0.3437
  11778 H          37.7730   17.0721    0.7818 H     2945  UNL2945     0.1146
  11779 H          38.9403   17.6839    1.7369 H     2945  UNL2945     0.1146
  11780 H          38.7022   18.2972    0.2482 H     2945  UNL2945     0.1146
  11781 N          38.2147   17.9439    3.3590 N.3   2946  UNL2946    -0.3437
  11782 H          37.7730   17.0721    3.0705 H     2946  UNL2946     0.1146
  11783 H          38.9403   17.6839    4.0256 H     2946  UNL2946     0.1146
  11784 H          38.7022   18.2972    2.5369 H     2946  UNL2946     0.1146
  11785 N          38.2147   17.9439    5.6477 N.3   2947  UNL2947    -0.3437
  11786 H          37.7730   17.0721    5.3592 H     2947  UNL2947     0.1146
  11787 H          38.9403   17.6839    6.3143 H     2947  UNL2947     0.1146
  11788 H          38.7022   18.2972    4.8256 H     2947  UNL2947     0.1146
  11789 N          38.2147   17.9439    7.9365 N.3   2948  UNL2948    -0.3437
  11790 H          37.7730   17.0721    7.6479 H     2948  UNL2948     0.1146
  11791 H          38.9403   17.6839    8.6031 H     2948  UNL2948     0.1146
  11792 H          38.7022   18.2972    7.1144 H     2948  UNL2948     0.1146
  11793 N          38.2147   17.9439   10.2252 N.3   2949  UNL2949    -0.3437
  11794 H          37.7730   17.0721    9.9367 H     2949  UNL2949     0.1146
  11795 H          38.9403   17.6839   10.8918 H     2949  UNL2949     0.1146
  11796 H          38.7022   18.2972    9.4031 H     2949  UNL2949     0.1146
  11797 N          38.2147   17.9439   12.5139 N.3   2950  UNL2950    -0.3437
  11798 H          37.7730   17.0721   12.2254 H     2950  UNL2950     0.1146
  11799 H          38.9403   17.6839   13.1805 H     2950  UNL2950     0.1146
  11800 H          38.7022   18.2972   11.6918 H     2950  UNL2950     0.1146
  11801 N          38.2147   17.9439   14.8026 N.3   2951  UNL2951    -0.3437
  11802 H          37.7730   17.0721   14.5141 H     2951  UNL2951     0.1146
  11803 H          38.9403   17.6839   15.4692 H     2951  UNL2951     0.1146
  11804 H          38.7022   18.2972   13.9805 H     2951  UNL2951     0.1146
  11805 N          38.2147   17.9439   17.0913 N.3   2952  UNL2952    -0.3437
  11806 H          37.7730   17.0721   16.8028 H     2952  UNL2952     0.1146
  11807 H          38.9403   17.6839   17.7579 H     2952  UNL2952     0.1146
  11808 H          38.7022   18.2972   16.2692 H     2952  UNL2952     0.1146
  11809 N          38.2147   17.9439   19.3800 N.3   2953  UNL2953    -0.3437
  11810 H          37.7730   17.0721   19.0915 H     2953  UNL2953     0.1146
  11811 H          38.9403   17.6839   20.0466 H     2953  UNL2953     0.1146
  11812 H          38.7022   18.2972   18.5579 H     2953  UNL2953     0.1146
  11813 N          38.2147   17.9439   21.6687 N.3   2954  UNL2954    -0.3437
  11814 H          37.7730   17.0721   21.3802 H     2954  UNL2954     0.1146
  11815 H          38.9403   17.6839   22.3353 H     2954  UNL2954     0.1146
  11816 H          38.7022   18.2972   20.8466 H     2954  UNL2954     0.1146
  11817 N          38.2147   17.9439   23.9575 N.3   2955  UNL2955    -0.3437
  11818 H          37.7730   17.0721   23.6690 H     2955  UNL2955     0.1146
  11819 H          38.9403   17.6839   24.6241 H     2955  UNL2955     0.1146
  11820 H          38.7022   18.2972   23.1354 H     2955  UNL2955     0.1146
  11821 N          38.2147   17.9439   26.2462 N.3   2956  UNL2956    -0.3437
  11822 H          37.7730   17.0721   25.9577 H     2956  UNL2956     0.1146
  11823 H          38.9403   17.6839   26.9128 H     2956  UNL2956     0.1146
  11824 H          38.7022   18.2972   25.4241 H     2956  UNL2956     0.1146
  11825 N          38.1309   17.7388   29.3203 N.3   2957  UNL2957    -0.3437
  11826 H          38.2686   17.1452   30.1370 H     2957  UNL2957     0.1146
  11827 H          38.4100   18.6767   29.6044 H     2957  UNL2957     0.1146
  11828 H          38.8207   17.4364   28.6338 H     2957  UNL2957     0.1146
  11829 N          38.2147   20.3877    1.0703 N.3   2958  UNL2958    -0.3437
  11830 H          37.7730   19.5159    0.7818 H     2958  UNL2958     0.1146
  11831 H          38.9403   20.1278    1.7369 H     2958  UNL2958     0.1146
  11832 H          38.7022   20.7410    0.2482 H     2958  UNL2958     0.1146
  11833 N          38.2147   20.3877    3.3590 N.3   2959  UNL2959    -0.3437
  11834 H          37.7730   19.5159    3.0705 H     2959  UNL2959     0.1146
  11835 H          38.9403   20.1278    4.0256 H     2959  UNL2959     0.1146
  11836 H          38.7022   20.7410    2.5369 H     2959  UNL2959     0.1146
  11837 N          38.2147   20.3877    5.6477 N.3   2960  UNL2960    -0.3437
  11838 H          37.7730   19.5159    5.3592 H     2960  UNL2960     0.1146
  11839 H          38.9403   20.1278    6.3143 H     2960  UNL2960     0.1146
  11840 H          38.7022   20.7410    4.8256 H     2960  UNL2960     0.1146
  11841 N          38.2147   20.3877    7.9365 N.3   2961  UNL2961    -0.3437
  11842 H          37.7730   19.5159    7.6479 H     2961  UNL2961     0.1146
  11843 H          38.9403   20.1278    8.6031 H     2961  UNL2961     0.1146
  11844 H          38.7022   20.7410    7.1144 H     2961  UNL2961     0.1146
  11845 N          38.2147   20.3877   10.2252 N.3   2962  UNL2962    -0.3437
  11846 H          37.7730   19.5159    9.9367 H     2962  UNL2962     0.1146
  11847 H          38.9403   20.1278   10.8918 H     2962  UNL2962     0.1146
  11848 H          38.7022   20.7410    9.4031 H     2962  UNL2962     0.1146
  11849 N          38.2147   20.3877   12.5139 N.3   2963  UNL2963    -0.3437
  11850 H          37.7730   19.5159   12.2254 H     2963  UNL2963     0.1146
  11851 H          38.9403   20.1278   13.1805 H     2963  UNL2963     0.1146
  11852 H          38.7022   20.7410   11.6918 H     2963  UNL2963     0.1146
  11853 N          38.2147   20.3877   14.8026 N.3   2964  UNL2964    -0.3437
  11854 H          37.7730   19.5159   14.5141 H     2964  UNL2964     0.1146
  11855 H          38.9403   20.1278   15.4692 H     2964  UNL2964     0.1146
  11856 H          38.7022   20.7410   13.9805 H     2964  UNL2964     0.1146
  11857 N          38.2147   20.3877   17.0913 N.3   2965  UNL2965    -0.3437
  11858 H          37.7730   19.5159   16.8028 H     2965  UNL2965     0.1146
  11859 H          38.9403   20.1278   17.7579 H     2965  UNL2965     0.1146
  11860 H          38.7022   20.7410   16.2692 H     2965  UNL2965     0.1146
  11861 N          38.2147   20.3877   19.3800 N.3   2966  UNL2966    -0.3437
  11862 H          37.7730   19.5159   19.0915 H     2966  UNL2966     0.1146
  11863 H          38.9403   20.1278   20.0466 H     2966  UNL2966     0.1146
  11864 H          38.7022   20.7410   18.5579 H     2966  UNL2966     0.1146
  11865 N          38.2147   20.3877   21.6687 N.3   2967  UNL2967    -0.3437
  11866 H          37.7730   19.5159   21.3802 H     2967  UNL2967     0.1146
  11867 H          38.9403   20.1278   22.3353 H     2967  UNL2967     0.1146
  11868 H          38.7022   20.7410   20.8466 H     2967  UNL2967     0.1146
  11869 N          38.2147   20.3877   23.9575 N.3   2968  UNL2968    -0.3437
  11870 H          37.7730   19.5159   23.6690 H     2968  UNL2968     0.1146
  11871 H          38.9403   20.1278   24.6241 H     2968  UNL2968     0.1146
  11872 H          38.7022   20.7410   23.1354 H     2968  UNL2968     0.1146
  11873 N          38.2147   20.3877   26.2462 N.3   2969  UNL2969    -0.3437
  11874 H          37.7730   19.5159   25.9577 H     2969  UNL2969     0.1146
  11875 H          38.9403   20.1278   26.9128 H     2969  UNL2969     0.1146
  11876 H          38.7022   20.7410   25.4241 H     2969  UNL2969     0.1146
  11877 N          38.2147   20.1656   29.2016 N.3   2970  UNL2970    -0.3437
  11878 H          37.7730   20.4562   30.0727 H     2970  UNL2970     0.1146
  11879 H          38.9403   20.8552   29.0109 H     2970  UNL2970     0.1146
  11880 H          38.7022   19.2955   29.4105 H     2970  UNL2970     0.1146
  11881 N          38.2147   22.8315    1.0703 N.3   2971  UNL2971    -0.3437
  11882 H          37.7730   21.9597    0.7818 H     2971  UNL2971     0.1146
  11883 H          38.9403   22.5716    1.7369 H     2971  UNL2971     0.1146
  11884 H          38.7022   23.1848    0.2482 H     2971  UNL2971     0.1146
  11885 N          38.2147   22.8315    3.3590 N.3   2972  UNL2972    -0.3437
  11886 H          37.7730   21.9597    3.0705 H     2972  UNL2972     0.1146
  11887 H          38.9403   22.5716    4.0256 H     2972  UNL2972     0.1146
  11888 H          38.7022   23.1848    2.5369 H     2972  UNL2972     0.1146
  11889 N          38.2147   22.8315    5.6477 N.3   2973  UNL2973    -0.3437
  11890 H          37.7730   21.9597    5.3592 H     2973  UNL2973     0.1146
  11891 H          38.9403   22.5716    6.3143 H     2973  UNL2973     0.1146
  11892 H          38.7022   23.1848    4.8256 H     2973  UNL2973     0.1146
  11893 N          38.2147   22.8315    7.9365 N.3   2974  UNL2974    -0.3437
  11894 H          37.7730   21.9597    7.6479 H     2974  UNL2974     0.1146
  11895 H          38.9403   22.5716    8.6031 H     2974  UNL2974     0.1146
  11896 H          38.7022   23.1848    7.1144 H     2974  UNL2974     0.1146
  11897 N          38.2147   22.8315   10.2252 N.3   2975  UNL2975    -0.3437
  11898 H          37.7730   21.9597    9.9367 H     2975  UNL2975     0.1146
  11899 H          38.9403   22.5716   10.8918 H     2975  UNL2975     0.1146
  11900 H          38.7022   23.1848    9.4031 H     2975  UNL2975     0.1146
  11901 N          38.2147   22.8315   12.5139 N.3   2976  UNL2976    -0.3437
  11902 H          37.7730   21.9597   12.2254 H     2976  UNL2976     0.1146
  11903 H          38.9403   22.5716   13.1805 H     2976  UNL2976     0.1146
  11904 H          38.7022   23.1848   11.6918 H     2976  UNL2976     0.1146
  11905 N          38.2147   22.8315   14.8026 N.3   2977  UNL2977    -0.3437
  11906 H          37.7730   21.9597   14.5141 H     2977  UNL2977     0.1146
  11907 H          38.9403   22.5716   15.4692 H     2977  UNL2977     0.1146
  11908 H          38.7022   23.1848   13.9805 H     2977  UNL2977     0.1146
  11909 N          38.2147   22.8315   17.0913 N.3   2978  UNL2978    -0.3437
  11910 H          37.7730   21.9597   16.8028 H     2978  UNL2978     0.1146
  11911 H          38.9403   22.5716   17.7579 H     2978  UNL2978     0.1146
  11912 H          38.7022   23.1848   16.2692 H     2978  UNL2978     0.1146
  11913 N          38.2147   22.8315   19.3800 N.3   2979  UNL2979    -0.3437
  11914 H          37.7730   21.9597   19.0915 H     2979  UNL2979     0.1146
  11915 H          38.9403   22.5716   20.0466 H     2979  UNL2979     0.1146
  11916 H          38.7022   23.1848   18.5579 H     2979  UNL2979     0.1146
  11917 N          38.2147   22.8315   21.6687 N.3   2980  UNL2980    -0.3437
  11918 H          37.7730   21.9597   21.3802 H     2980  UNL2980     0.1146
  11919 H          38.9403   22.5716   22.3353 H     2980  UNL2980     0.1146
  11920 H          38.7022   23.1848   20.8466 H     2980  UNL2980     0.1146
  11921 N          38.2147   22.8315   23.9575 N.3   2981  UNL2981    -0.3437
  11922 H          37.7730   21.9597   23.6690 H     2981  UNL2981     0.1146
  11923 H          38.9403   22.5716   24.6241 H     2981  UNL2981     0.1146
  11924 H          38.7022   23.1848   23.1354 H     2981  UNL2981     0.1146
  11925 N          38.2147   22.8315   26.2462 N.3   2982  UNL2982    -0.3437
  11926 H          37.7730   21.9597   25.9577 H     2982  UNL2982     0.1146
  11927 H          38.9403   22.5716   26.9128 H     2982  UNL2982     0.1146
  11928 H          38.7022   23.1848   25.4241 H     2982  UNL2982     0.1146
  11929 N          38.1593   22.7955   28.4477 N.3   2983  UNL2983    -0.3437
  11930 H          38.5754   22.5769   29.3518 H     2983  UNL2983     0.1146
  11931 H          38.8832   23.2742   27.9136 H     2983  UNL2983     0.1146
  11932 H          38.0123   21.9009   27.9824 H     2983  UNL2983     0.1146
  11933 N          38.2147   25.2753    1.0703 N.3   2984  UNL2984    -0.3437
  11934 H          37.7730   24.4035    0.7818 H     2984  UNL2984     0.1146
  11935 H          38.9403   25.0154    1.7369 H     2984  UNL2984     0.1146
  11936 H          38.7022   25.6286    0.2482 H     2984  UNL2984     0.1146
  11937 N          38.2147   25.2753    3.3590 N.3   2985  UNL2985    -0.3437
  11938 H          37.7730   24.4035    3.0705 H     2985  UNL2985     0.1146
  11939 H          38.9403   25.0154    4.0256 H     2985  UNL2985     0.1146
  11940 H          38.7022   25.6286    2.5369 H     2985  UNL2985     0.1146
  11941 N          38.2147   25.2753    5.6477 N.3   2986  UNL2986    -0.3437
  11942 H          37.7730   24.4035    5.3592 H     2986  UNL2986     0.1146
  11943 H          38.9403   25.0154    6.3143 H     2986  UNL2986     0.1146
  11944 H          38.7022   25.6286    4.8256 H     2986  UNL2986     0.1146
  11945 N          38.2147   25.2753    7.9365 N.3   2987  UNL2987    -0.3437
  11946 H          37.7730   24.4035    7.6479 H     2987  UNL2987     0.1146
  11947 H          38.9403   25.0154    8.6031 H     2987  UNL2987     0.1146
  11948 H          38.7022   25.6286    7.1144 H     2987  UNL2987     0.1146
  11949 N          38.2147   25.2753   10.2252 N.3   2988  UNL2988    -0.3437
  11950 H          37.7730   24.4035    9.9367 H     2988  UNL2988     0.1146
  11951 H          38.9403   25.0154   10.8918 H     2988  UNL2988     0.1146
  11952 H          38.7022   25.6286    9.4031 H     2988  UNL2988     0.1146
  11953 N          38.2147   25.2753   12.5139 N.3   2989  UNL2989    -0.3437
  11954 H          37.7730   24.4035   12.2254 H     2989  UNL2989     0.1146
  11955 H          38.9403   25.0154   13.1805 H     2989  UNL2989     0.1146
  11956 H          38.7022   25.6286   11.6918 H     2989  UNL2989     0.1146
  11957 N          38.2147   25.2753   14.8026 N.3   2990  UNL2990    -0.3437
  11958 H          37.7730   24.4035   14.5141 H     2990  UNL2990     0.1146
  11959 H          38.9403   25.0154   15.4692 H     2990  UNL2990     0.1146
  11960 H          38.7022   25.6286   13.9805 H     2990  UNL2990     0.1146
  11961 N          38.2147   25.2753   17.0913 N.3   2991  UNL2991    -0.3437
  11962 H          37.7730   24.4035   16.8028 H     2991  UNL2991     0.1146
  11963 H          38.9403   25.0154   17.7579 H     2991  UNL2991     0.1146
  11964 H          38.7022   25.6286   16.2692 H     2991  UNL2991     0.1146
  11965 N          38.2147   25.2753   19.3800 N.3   2992  UNL2992    -0.3437
  11966 H          37.7730   24.4035   19.0915 H     2992  UNL2992     0.1146
  11967 H          38.9403   25.0154   20.0466 H     2992  UNL2992     0.1146
  11968 H          38.7022   25.6286   18.5579 H     2992  UNL2992     0.1146
  11969 N          38.2147   25.2753   21.6687 N.3   2993  UNL2993    -0.3437
  11970 H          37.7730   24.4035   21.3802 H     2993  UNL2993     0.1146
  11971 H          38.9403   25.0154   22.3353 H     2993  UNL2993     0.1146
  11972 H          38.7022   25.6286   20.8466 H     2993  UNL2993     0.1146
  11973 N          38.2147   25.2753   23.9575 N.3   2994  UNL2994    -0.3437
  11974 H          37.7730   24.4035   23.6690 H     2994  UNL2994     0.1146
  11975 H          38.9403   25.0154   24.6241 H     2994  UNL2994     0.1146
  11976 H          38.7022   25.6286   23.1354 H     2994  UNL2994     0.1146
  11977 N          38.2147   25.2753   26.2462 N.3   2995  UNL2995    -0.3437
  11978 H          37.7730   24.4035   25.9577 H     2995  UNL2995     0.1146
  11979 H          38.9403   25.0154   26.9128 H     2995  UNL2995     0.1146
  11980 H          38.7022   25.6286   25.4241 H     2995  UNL2995     0.1146
  11981 N          37.3449   25.0532   29.7114 N.3   2996  UNL2996    -0.3437
  11982 H          38.3071   25.3438   29.5440 H     2996  UNL2996     0.1146
  11983 H          36.7578   25.7428   29.2443 H     2996  UNL2996     0.1146
  11984 H          37.2205   24.1831   29.1959 H     2996  UNL2996     0.1146
  11985 N          38.2147   27.7191    1.0703 N.3   2997  UNL2997    -0.3437
  11986 H          37.7730   26.8473    0.7818 H     2997  UNL2997     0.1146
  11987 H          38.9403   27.4592    1.7369 H     2997  UNL2997     0.1146
  11988 H          38.7022   28.0724    0.2482 H     2997  UNL2997     0.1146
  11989 N          38.2147   27.7191    3.3590 N.3   2998  UNL2998    -0.3437
  11990 H          37.7730   26.8473    3.0705 H     2998  UNL2998     0.1146
  11991 H          38.9403   27.4592    4.0256 H     2998  UNL2998     0.1146
  11992 H          38.7022   28.0724    2.5369 H     2998  UNL2998     0.1146
  11993 N          38.2147   27.7191    5.6477 N.3   2999  UNL2999    -0.3437
  11994 H          37.7730   26.8473    5.3592 H     2999  UNL2999     0.1146
  11995 H          38.9403   27.4592    6.3143 H     2999  UNL2999     0.1146
  11996 H          38.7022   28.0724    4.8256 H     2999  UNL2999     0.1146
  11997 N          38.2147   27.7191    7.9365 N.3   3000  UNL3000    -0.3437
  11998 H          37.7730   26.8473    7.6479 H     3000  UNL3000     0.1146
  11999 H          38.9403   27.4592    8.6031 H     3000  UNL3000     0.1146
  12000 H          38.7022   28.0724    7.1144 H     3000  UNL3000     0.1146
  12001 N          38.2147   27.7191   10.2252 N.3   3001  UNL3001    -0.3437
  12002 H          37.7730   26.8473    9.9367 H     3001  UNL3001     0.1146
  12003 H          38.9403   27.4592   10.8918 H     3001  UNL3001     0.1146
  12004 H          38.7022   28.0724    9.4031 H     3001  UNL3001     0.1146
  12005 N          38.2147   27.7191   12.5139 N.3   3002  UNL3002    -0.3437
  12006 H          37.7730   26.8473   12.2254 H     3002  UNL3002     0.1146
  12007 H          38.9403   27.4592   13.1805 H     3002  UNL3002     0.1146
  12008 H          38.7022   28.0724   11.6918 H     3002  UNL3002     0.1146
  12009 N          38.2147   27.7191   14.8026 N.3   3003  UNL3003    -0.3437
  12010 H          37.7730   26.8473   14.5141 H     3003  UNL3003     0.1146
  12011 H          38.9403   27.4592   15.4692 H     3003  UNL3003     0.1146
  12012 H          38.7022   28.0724   13.9805 H     3003  UNL3003     0.1146
  12013 N          38.2147   27.7191   17.0913 N.3   3004  UNL3004    -0.3437
  12014 H          37.7730   26.8473   16.8028 H     3004  UNL3004     0.1146
  12015 H          38.9403   27.4592   17.7579 H     3004  UNL3004     0.1146
  12016 H          38.7022   28.0724   16.2692 H     3004  UNL3004     0.1146
  12017 N          38.2147   27.7191   19.3800 N.3   3005  UNL3005    -0.3437
  12018 H          37.7730   26.8473   19.0915 H     3005  UNL3005     0.1146
  12019 H          38.9403   27.4592   20.0466 H     3005  UNL3005     0.1146
  12020 H          38.7022   28.0724   18.5579 H     3005  UNL3005     0.1146
  12021 N          38.2147   27.7191   21.6687 N.3   3006  UNL3006    -0.3437
  12022 H          37.7730   26.8473   21.3802 H     3006  UNL3006     0.1146
  12023 H          38.9403   27.4592   22.3353 H     3006  UNL3006     0.1146
  12024 H          38.7022   28.0724   20.8466 H     3006  UNL3006     0.1146
  12025 N          38.2147   27.7191   23.9575 N.3   3007  UNL3007    -0.3437
  12026 H          37.7730   26.8473   23.6690 H     3007  UNL3007     0.1146
  12027 H          38.9403   27.4592   24.6241 H     3007  UNL3007     0.1146
  12028 H          38.7022   28.0724   23.1354 H     3007  UNL3007     0.1146
  12029 N          38.2147   27.7191   26.2462 N.3   3008  UNL3008    -0.3437
  12030 H          37.7730   26.8473   25.9577 H     3008  UNL3008     0.1146
  12031 H          38.9403   27.4592   26.9128 H     3008  UNL3008     0.1146
  12032 H          38.7022   28.0724   25.4241 H     3008  UNL3008     0.1146
  12033 N          38.2147   25.4970   28.2016 N.3   3009  UNL3009    -0.3437
  12034 H          37.7730   25.7876   29.0727 H     3009  UNL3009     0.1146
  12035 H          38.9403   26.1866   28.0109 H     3009  UNL3009     0.1146
  12036 H          38.7022   24.6269   28.4105 H     3009  UNL3009     0.1146
  12037 N          38.2147   31.1629    1.0703 N.3   3010  UNL3010    -0.3437
  12038 H          37.7730   30.2911    0.7818 H     3010  UNL3010     0.1146
  12039 H          38.9403   30.9030    1.7369 H     3010  UNL3010     0.1146
  12040 H          38.7022   31.5163    0.2482 H     3010  UNL3010     0.1146
  12041 N          38.2147   30.1629    3.3590 N.3   3011  UNL3011    -0.3437
  12042 H          37.7730   29.2911    3.0705 H     3011  UNL3011     0.1146
  12043 H          38.9403   29.9030    4.0256 H     3011  UNL3011     0.1146
  12044 H          38.7022   30.5163    2.5369 H     3011  UNL3011     0.1146
  12045 N          37.3449   30.9408    5.8243 N.3   3012  UNL3012    -0.3437
  12046 H          38.3071   31.2314    5.6568 H     3012  UNL3012     0.1146
  12047 H          36.7578   31.6304    5.3571 H     3012  UNL3012     0.1146
  12048 H          37.2205   30.0707    5.3087 H     3012  UNL3012     0.1146
  12049 N          38.2147   30.9408    7.6031 N.3   3013  UNL3013    -0.3437
  12050 H          37.7730   31.2314    8.4742 H     3013  UNL3013     0.1146
  12051 H          38.9403   31.6304    7.4124 H     3013  UNL3013     0.1146
  12052 H          38.7022   30.0707    7.8120 H     3013  UNL3013     0.1146
  12053 N          38.5831   31.1794   10.2238 N.3   3014  UNL3014    -0.3437
  12054 H          38.7428   30.2704   10.6558 H     3014  UNL3014     0.1146
  12055 H          38.7112   31.0409    9.2224 H     3014  UNL3014     0.1146
  12056 H          37.5931   31.3825   10.3548 H     3014  UNL3014     0.1146
  12057 N          38.2147   31.1629   12.5139 N.3   3015  UNL3015    -0.3437
  12058 H          37.7730   30.2911   12.2254 H     3015  UNL3015     0.1146
  12059 H          38.9403   30.9030   13.1805 H     3015  UNL3015     0.1146
  12060 H          38.7022   31.5163   11.6918 H     3015  UNL3015     0.1146
  12061 N          38.2147   30.1629   14.8026 N.3   3016  UNL3016    -0.3437
  12062 H          37.7730   29.2911   14.5141 H     3016  UNL3016     0.1146
  12063 H          38.9403   29.9030   15.4692 H     3016  UNL3016     0.1146
  12064 H          38.7022   30.5163   13.9805 H     3016  UNL3016     0.1146
  12065 N          37.3449   30.9408   17.2679 N.3   3017  UNL3017    -0.3437
  12066 H          38.3071   31.2314   17.1004 H     3017  UNL3017     0.1146
  12067 H          36.7578   31.6304   16.8007 H     3017  UNL3017     0.1146
  12068 H          37.2205   30.0707   16.7523 H     3017  UNL3017     0.1146
  12069 N          38.5831   31.1794   19.3786 N.3   3018  UNL3018    -0.3437
  12070 H          38.7428   30.2704   19.8106 H     3018  UNL3018     0.1146
  12071 H          38.7112   31.0409   18.3772 H     3018  UNL3018     0.1146
  12072 H          37.5931   31.3825   19.5096 H     3018  UNL3018     0.1146
  12073 N          38.2147   31.1629   21.6687 N.3   3019  UNL3019    -0.3437
  12074 H          37.7730   30.2911   21.3802 H     3019  UNL3019     0.1146
  12075 H          38.9403   30.9030   22.3353 H     3019  UNL3019     0.1146
  12076 H          38.7022   31.5163   20.8466 H     3019  UNL3019     0.1146
  12077 N          38.2147   30.1629   23.9575 N.3   3020  UNL3020    -0.3437
  12078 H          37.7730   29.2911   23.6690 H     3020  UNL3020     0.1146
  12079 H          38.9403   29.9030   24.6241 H     3020  UNL3020     0.1146
  12080 H          38.7022   30.5163   23.1354 H     3020  UNL3020     0.1146
  12081 N          37.3449   30.9408   26.4227 N.3   3021  UNL3021    -0.3437
  12082 H          38.3071   31.2314   26.2553 H     3021  UNL3021     0.1146
  12083 H          36.7578   31.6304   25.9555 H     3021  UNL3021     0.1146
  12084 H          37.2205   30.0707   25.9071 H     3021  UNL3021     0.1146
  12085 N          38.2147   29.9408   29.2016 N.3   3022  UNL3022    -0.3437
  12086 H          37.7730   30.2314   30.0727 H     3022  UNL3022     0.1146
  12087 H          38.9403   30.6304   29.0109 H     3022  UNL3022     0.1146
  12088 H          38.7022   29.0707   29.4105 H     3022  UNL3022     0.1146
@<TRIPOS>BOND
     1     1     2    1
     2     1     3    1
     3     1     4    1
     4     5     6    1
     5     5     7    1
     6     5     8    1
     7     9    10    1
     8     9    11    1
     9     9    12    1
    10    13    14    1
    11    13    15    1
    12    13    16    1
    13    17    18    1
    14    17    19    1
    15    17    20    1
    16    21    22    1
    17    21    23    1
    18    21    24    1
    19    25    26    1
    20    25    27    1
    21    25    28    1
    22    29    30    1
    23    29    31    1
    24    29    32    1
    25    33    34    1
    26    33    35    1
    27    33    36    1
    28    37    38    1
    29    37    39    1
    30    37    40    1
    31    41    42    1
    32    41    43    1
    33    41    44    1
    34    45    46    1
    35    45    47    1
    36    45    48    1
    37    49    50    1
    38    49    51    1
    39    49    52    1
    40    53    54    1
    41    53    55    1
    42    53    56    1
    43    57    58    1
    44    57    59    1
    45    57    60    1
    46    61    62    1
    47    61    63    1
    48    61    64    1
    49    65    66    1
    50    65    67    1
    51    65    68    1
    52    69    70    1
    53    69    71    1
    54    69    72    1
    55    73    74    1
    56    73    75    1
    57    73    76    1
    58    77    78    1
    59    77    79    1
    60    77    80    1
    61    81    82    1
    62    81    83    1
    63    81    84    1
    64    85    86    1
    65    85    87    1
    66    85    88    1
    67    89    90    1
    68    89    91    1
    69    89    92    1
    70    93    94    1
    71    93    95    1
    72    93    96    1
    73    97    98    1
    74    97    99    1
    75    97   100    1
    76   101   102    1
    77   101   103    1
    78   101   104    1
    79   105   106    1
    80   105   107    1
    81   105   108    1
    82   109   110    1
    83   109   111    1
    84   109   112    1
    85   113   114    1
    86   113   115    1
    87   113   116    1
    88   117   118    1
    89   117   119    1
    90   117   120    1
    91   121   122    1
    92   121   123    1
    93   121   124    1
    94   125   126    1
    95   125   127    1
    96   125   128    1
    97   129   130    1
    98   129   131    1
    99   129   132    1
   100   133   134    1
   101   133   135    1
   102   133   136    1
   103   137   138    1
   104   137   139    1
   105   137   140    1
   106   141   142    1
   107   141   143    1
   108   141   144    1
   109   145   146    1
   110   145   147    1
   111   145   148    1
   112   149   150    1
   113   149   151    1
   114   149   152    1
   115   153   154    1
   116   153   155    1
   117   153   156    1
   118   157   158    1
   119   157   159    1
   120   157   160    1
   121   161   162    1
   122   161   163    1
   123   161   164    1
   124   165   166    1
   125   165   167    1
   126   165   168    1
   127   169   170    1
   128   169   171    1
   129   169   172    1
   130   173   174    1
   131   173   175    1
   132   173   176    1
   133   177   178    1
   134   177   179    1
   135   177   180    1
   136   181   182    1
   137   181   183    1
   138   181   184    1
   139   185   186    1
   140   185   187    1
   141   185   188    1
   142   189   190    1
   143   189   191    1
   144   189   192    1
   145   193   194    1
   146   193   195    1
   147   193   196    1
   148   197   198    1
   149   197   199    1
   150   197   200    1
   151   201   202    1
   152   201   203    1
   153   201   204    1
   154   205   206    1
   155   205   207    1
   156   205   208    1
   157   209   210    1
   158   209   211    1
   159   209   212    1
   160   213   214    1
   161   213   215    1
   162   213   216    1
   163   217   218    1
   164   217   219    1
   165   217   220    1
   166   221   222    1
   167   221   223    1
   168   221   224    1
   169   225   226    1
   170   225   227    1
   171   225   228    1
   172   229   230    1
   173   229   231    1
   174   229   232    1
   175   233   234    1
   176   233   235    1
   177   233   236    1
   178   237   238    1
   179   237   239    1
   180   237   240    1
   181   241   242    1
   182   241   243    1
   183   241   244    1
   184   245   246    1
   185   245   247    1
   186   245   248    1
   187   249   250    1
   188   249   251    1
   189   249   252    1
   190   253   254    1
   191   253   255    1
   192   253   256    1
   193   257   258    1
   194   257   259    1
   195   257   260    1
   196   261   262    1
   197   261   263    1
   198   261   264    1
   199   265   266    1
   200   265   267    1
   201   265   268    1
   202   269   270    1
   203   269   271    1
   204   269   272    1
   205   273   274    1
   206   273   275    1
   207   273   276    1
   208   277   278    1
   209   277   279    1
   210   277   280    1
   211   281   282    1
   212   281   283    1
   213   281   284    1
   214   285   286    1
   215   285   287    1
   216   285   288    1
   217   289   290    1
   218   289   291    1
   219   289   292    1
   220   293   294    1
   221   293   295    1
   222   293   296    1
   223   297   298    1
   224   297   299    1
   225   297   300    1
   226   301   302    1
   227   301   303    1
   228   301   304    1
   229   305   306    1
   230   305   307    1
   231   305   308    1
   232   309   310    1
   233   309   311    1
   234   309   312    1
   235   313   314    1
   236   313   315    1
   237   313   316    1
   238   317   318    1
   239   317   319    1
   240   317   320    1
   241   321   322    1
   242   321   323    1
   243   321   324    1
   244   325   326    1
   245   325   327    1
   246   325   328    1
   247   329   330    1
   248   329   331    1
   249   329   332    1
   250   333   334    1
   251   333   335    1
   252   333   336    1
   253   337   338    1
   254   337   339    1
   255   337   340    1
   256   341   342    1
   257   341   343    1
   258   341   344    1
   259   345   346    1
   260   345   347    1
   261   345   348    1
   262   349   350    1
   263   349   351    1
   264   349   352    1
   265   353   354    1
   266   353   355    1
   267   353   356    1
   268   357   358    1
   269   357   359    1
   270   357   360    1
   271   361   362    1
   272   361   363    1
   273   361   364    1
   274   365   366    1
   275   365   367    1
   276   365   368    1
   277   369   370    1
   278   369   371    1
   279   369   372    1
   280   373   374    1
   281   373   375    1
   282   373   376    1
   283   377   378    1
   284   377   379    1
   285   377   380    1
   286   381   382    1
   287   381   383    1
   288   381   384    1
   289   385   386    1
   290   385   387    1
   291   385   388    1
   292   389   390    1
   293   389   391    1
   294   389   392    1
   295   393   394    1
   296   393   395    1
   297   393   396    1
   298   397   398    1
   299   397   399    1
   300   397   400    1
   301   401   402    1
   302   401   403    1
   303   401   404    1
   304   405   406    1
   305   405   407    1
   306   405   408    1
   307   409   410    1
   308   409   411    1
   309   409   412    1
   310   413   414    1
   311   413   415    1
   312   413   416    1
   313   417   418    1
   314   417   419    1
   315   417   420    1
   316   421   422    1
   317   421   423    1
   318   421   424    1
   319   425   426    1
   320   425   427    1
   321   425   428    1
   322   429   430    1
   323   429   431    1
   324   429   432    1
   325   433   434    1
   326   433   435    1
   327   433   436    1
   328   437   438    1
   329   437   439    1
   330   437   440    1
   331   441   442    1
   332   441   443    1
   333   441   444    1
   334   445   446    1
   335   445   447    1
   336   445   448    1
   337   449   450    1
   338   449   451    1
   339   449   452    1
   340   453   454    1
   341   453   455    1
   342   453   456    1
   343   457   458    1
   344   457   459    1
   345   457   460    1
   346   461   462    1
   347   461   463    1
   348   461   464    1
   349   465   466    1
   350   465   467    1
   351   465   468    1
   352   469   470    1
   353   469   471    1
   354   469   472    1
   355   473   474    1
   356   473   475    1
   357   473   476    1
   358   477   478    1
   359   477   479    1
   360   477   480    1
   361   481   482    1
   362   481   483    1
   363   481   484    1
   364   485   486    1
   365   485   487    1
   366   485   488    1
   367   489   490    1
   368   489   491    1
   369   489   492    1
   370   493   494    1
   371   493   495    1
   372   493   496    1
   373   497   498    1
   374   497   499    1
   375   497   500    1
   376   501   502    1
   377   501   503    1
   378   501   504    1
   379   505   506    1
   380   505   507    1
   381   505   508    1
   382   509   510    1
   383   509   511    1
   384   509   512    1
   385   513   514    1
   386   513   515    1
   387   513   516    1
   388   517   518    1
   389   517   519    1
   390   517   520    1
   391   521   522    1
   392   521   523    1
   393   521   524    1
   394   525   526    1
   395   525   527    1
   396   525   528    1
   397   529   530    1
   398   529   531    1
   399   529   532    1
   400   533   534    1
   401   533   535    1
   402   533   536    1
   403   537   538    1
   404   537   539    1
   405   537   540    1
   406   541   542    1
   407   541   543    1
   408   541   544    1
   409   545   546    1
   410   545   547    1
   411   545   548    1
   412   549   550    1
   413   549   551    1
   414   549   552    1
   415   553   554    1
   416   553   555    1
   417   553   556    1
   418   557   558    1
   419   557   559    1
   420   557   560    1
   421   561   562    1
   422   561   563    1
   423   561   564    1
   424   565   566    1
   425   565   567    1
   426   565   568    1
   427   569   570    1
   428   569   571    1
   429   569   572    1
   430   573   574    1
   431   573   575    1
   432   573   576    1
   433   577   578    1
   434   577   579    1
   435   577   580    1
   436   581   582    1
   437   581   583    1
   438   581   584    1
   439   585   586    1
   440   585   587    1
   441   585   588    1
   442   589   590    1
   443   589   591    1
   444   589   592    1
   445   593   594    1
   446   593   595    1
   447   593   596    1
   448   597   598    1
   449   597   599    1
   450   597   600    1
   451   601   602    1
   452   601   603    1
   453   601   604    1
   454   605   606    1
   455   605   607    1
   456   605   608    1
   457   609   610    1
   458   609   611    1
   459   609   612    1
   460   613   614    1
   461   613   615    1
   462   613   616    1
   463   617   618    1
   464   617   619    1
   465   617   620    1
   466   621   622    1
   467   621   623    1
   468   621   624    1
   469   625   626    1
   470   625   627    1
   471   625   628    1
   472   629   630    1
   473   629   631    1
   474   629   632    1
   475   633   634    1
   476   633   635    1
   477   633   636    1
   478   637   638    1
   479   637   639    1
   480   637   640    1
   481   641   642    1
   482   641   643    1
   483   641   644    1
   484   645   646    1
   485   645   647    1
   486   645   648    1
   487   649   650    1
   488   649   651    1
   489   649   652    1
   490   653   654    1
   491   653   655    1
   492   653   656    1
   493   657   658    1
   494   657   659    1
   495   657   660    1
   496   661   662    1
   497   661   663    1
   498   661   664    1
   499   665   666    1
   500   665   667    1
   501   665   668    1
   502   669   670    1
   503   669   671    1
   504   669   672    1
   505   673   674    1
   506   673   675    1
   507   673   676    1
   508   677   678    1
   509   677   679    1
   510   677   680    1
   511   681   682    1
   512   681   683    1
   513   681   684    1
   514   685   686    1
   515   685   687    1
   516   685   688    1
   517   689   690    1
   518   689   691    1
   519   689   692    1
   520   693   694    1
   521   693   695    1
   522   693   696    1
   523   697   698    1
   524   697   699    1
   525   697   700    1
   526   701   702    1
   527   701   703    1
   528   701   704    1
   529   705   706    1
   530   705   707    1
   531   705   708    1
   532   709   710    1
   533   709   711    1
   534   709   712    1
   535   713   714    1
   536   713   715    1
   537   713   716    1
   538   717   718    1
   539   717   719    1
   540   717   720    1
   541   721   722    1
   542   721   723    1
   543   721   724    1
   544   725   726    1
   545   725   727    1
   546   725   728    1
   547   729   730    1
   548   729   731    1
   549   729   732    1
   550   733   734    1
   551   733   735    1
   552   733   736    1
   553   737   738    1
   554   737   739    1
   555   737   740    1
   556   741   742    1
   557   741   743    1
   558   741   744    1
   559   745   746    1
   560   745   747    1
   561   745   748    1
   562   749   750    1
   563   749   751    1
   564   749   752    1
   565   753   754    1
   566   753   755    1
   567   753   756    1
   568   757   758    1
   569   757   759    1
   570   757   760    1
   571   761   762    1
   572   761   763    1
   573   761   764    1
   574   765   766    1
   575   765   767    1
   576   765   768    1
   577   769   770    1
   578   769   771    1
   579   769   772    1
   580   773   774    1
   581   773   775    1
   582   773   776    1
   583   777   778    1
   584   777   779    1
   585   777   780    1
   586   781   782    1
   587   781   783    1
   588   781   784    1
   589   785   786    1
   590   785   787    1
   591   785   788    1
   592   789   790    1
   593   789   791    1
   594   789   792    1
   595   793   794    1
   596   793   795    1
   597   793   796    1
   598   797   798    1
   599   797   799    1
   600   797   800    1
   601   801   802    1
   602   801   803    1
   603   801   804    1
   604   805   806    1
   605   805   807    1
   606   805   808    1
   607   809   810    1
   608   809   811    1
   609   809   812    1
   610   813   814    1
   611   813   815    1
   612   813   816    1
   613   817   818    1
   614   817   819    1
   615   817   820    1
   616   821   822    1
   617   821   823    1
   618   821   824    1
   619   825   826    1
   620   825   827    1
   621   825   828    1
   622   829   830    1
   623   829   831    1
   624   829   832    1
   625   833   834    1
   626   833   835    1
   627   833   836    1
   628   837   838    1
   629   837   839    1
   630   837   840    1
   631   841   842    1
   632   841   843    1
   633   841   844    1
   634   845   846    1
   635   845   847    1
   636   845   848    1
   637   849   850    1
   638   849   851    1
   639   849   852    1
   640   853   854    1
   641   853   855    1
   642   853   856    1
   643   857   858    1
   644   857   859    1
   645   857   860    1
   646   861   862    1
   647   861   863    1
   648   861   864    1
   649   865   866    1
   650   865   867    1
   651   865   868    1
   652   869   870    1
   653   869   871    1
   654   869   872    1
   655   873   874    1
   656   873   875    1
   657   873   876    1
   658   877   878    1
   659   877   879    1
   660   877   880    1
   661   881   882    1
   662   881   883    1
   663   881   884    1
   664   885   886    1
   665   885   887    1
   666   885   888    1
   667   889   890    1
   668   889   891    1
   669   889   892    1
   670   893   894    1
   671   893   895    1
   672   893   896    1
   673   897   898    1
   674   897   899    1
   675   897   900    1
   676   901   902    1
   677   901   903    1
   678   901   904    1
   679   905   906    1
   680   905   907    1
   681   905   908    1
   682   909   910    1
   683   909   911    1
   684   909   912    1
   685   913   914    1
   686   913   915    1
   687   913   916    1
   688   917   918    1
   689   917   919    1
   690   917   920    1
   691   921   922    1
   692   921   923    1
   693   921   924    1
   694   925   926    1
   695   925   927    1
   696   925   928    1
   697   929   930    1
   698   929   931    1
   699   929   932    1
   700   933   934    1
   701   933   935    1
   702   933   936    1
   703   937   938    1
   704   937   939    1
   705   937   940    1
   706   941   942    1
   707   941   943    1
   708   941   944    1
   709   945   946    1
   710   945   947    1
   711   945   948    1
   712   949   950    1
   713   949   951    1
   714   949   952    1
   715   953   954    1
   716   953   955    1
   717   953   956    1
   718   957   958    1
   719   957   959    1
   720   957   960    1
   721   961   962    1
   722   961   963    1
   723   961   964    1
   724   965   966    1
   725   965   967    1
   726   965   968    1
   727   969   970    1
   728   969   971    1
   729   969   972    1
   730   973   974    1
   731   973   975    1
   732   973   976    1
   733   977   978    1
   734   977   979    1
   735   977   980    1
   736   981   982    1
   737   981   983    1
   738   981   984    1
   739   985   986    1
   740   985   987    1
   741   985   988    1
   742   989   990    1
   743   989   991    1
   744   989   992    1
   745   993   994    1
   746   993   995    1
   747   993   996    1
   748   997   998    1
   749   997   999    1
   750   997  1000    1
   751  1001  1002    1
   752  1001  1003    1
   753  1001  1004    1
   754  1005  1006    1
   755  1005  1007    1
   756  1005  1008    1
   757  1009  1010    1
   758  1009  1011    1
   759  1009  1012    1
   760  1013  1014    1
   761  1013  1015    1
   762  1013  1016    1
   763  1017  1018    1
   764  1017  1019    1
   765  1017  1020    1
   766  1021  1022    1
   767  1021  1023    1
   768  1021  1024    1
   769  1025  1026    1
   770  1025  1027    1
   771  1025  1028    1
   772  1029  1030    1
   773  1029  1031    1
   774  1029  1032    1
   775  1033  1034    1
   776  1033  1035    1
   777  1033  1036    1
   778  1037  1038    1
   779  1037  1039    1
   780  1037  1040    1
   781  1041  1042    1
   782  1041  1043    1
   783  1041  1044    1
   784  1045  1046    1
   785  1045  1047    1
   786  1045  1048    1
   787  1049  1050    1
   788  1049  1051    1
   789  1049  1052    1
   790  1053  1054    1
   791  1053  1055    1
   792  1053  1056    1
   793  1057  1058    1
   794  1057  1059    1
   795  1057  1060    1
   796  1061  1062    1
   797  1061  1063    1
   798  1061  1064    1
   799  1065  1066    1
   800  1065  1067    1
   801  1065  1068    1
   802  1069  1070    1
   803  1069  1071    1
   804  1069  1072    1
   805  1073  1074    1
   806  1073  1075    1
   807  1073  1076    1
   808  1077  1078    1
   809  1077  1079    1
   810  1077  1080    1
   811  1081  1082    1
   812  1081  1083    1
   813  1081  1084    1
   814  1085  1086    1
   815  1085  1087    1
   816  1085  1088    1
   817  1089  1090    1
   818  1089  1091    1
   819  1089  1092    1
   820  1093  1094    1
   821  1093  1095    1
   822  1093  1096    1
   823  1097  1098    1
   824  1097  1099    1
   825  1097  1100    1
   826  1101  1102    1
   827  1101  1103    1
   828  1101  1104    1
   829  1105  1106    1
   830  1105  1107    1
   831  1105  1108    1
   832  1109  1110    1
   833  1109  1111    1
   834  1109  1112    1
   835  1113  1114    1
   836  1113  1115    1
   837  1113  1116    1
   838  1117  1118    1
   839  1117  1119    1
   840  1117  1120    1
   841  1121  1122    1
   842  1121  1123    1
   843  1121  1124    1
   844  1125  1126    1
   845  1125  1127    1
   846  1125  1128    1
   847  1129  1130    1
   848  1129  1131    1
   849  1129  1132    1
   850  1133  1134    1
   851  1133  1135    1
   852  1133  1136    1
   853  1137  1138    1
   854  1137  1139    1
   855  1137  1140    1
   856  1141  1142    1
   857  1141  1143    1
   858  1141  1144    1
   859  1145  1146    1
   860  1145  1147    1
   861  1145  1148    1
   862  1149  1150    1
   863  1149  1151    1
   864  1149  1152    1
   865  1153  1154    1
   866  1153  1155    1
   867  1153  1156    1
   868  1157  1158    1
   869  1157  1159    1
   870  1157  1160    1
   871  1161  1162    1
   872  1161  1163    1
   873  1161  1164    1
   874  1165  1166    1
   875  1165  1167    1
   876  1165  1168    1
   877  1169  1170    1
   878  1169  1171    1
   879  1169  1172    1
   880  1173  1174    1
   881  1173  1175    1
   882  1173  1176    1
   883  1177  1178    1
   884  1177  1179    1
   885  1177  1180    1
   886  1181  1182    1
   887  1181  1183    1
   888  1181  1184    1
   889  1185  1186    1
   890  1185  1187    1
   891  1185  1188    1
   892  1189  1190    1
   893  1189  1191    1
   894  1189  1192    1
   895  1193  1194    1
   896  1193  1195    1
   897  1193  1196    1
   898  1197  1198    1
   899  1197  1199    1
   900  1197  1200    1
   901  1201  1202    1
   902  1201  1203    1
   903  1201  1204    1
   904  1205  1206    1
   905  1205  1207    1
   906  1205  1208    1
   907  1209  1210    1
   908  1209  1211    1
   909  1209  1212    1
   910  1213  1214    1
   911  1213  1215    1
   912  1213  1216    1
   913  1217  1218    1
   914  1217  1219    1
   915  1217  1220    1
   916  1221  1222    1
   917  1221  1223    1
   918  1221  1224    1
   919  1225  1226    1
   920  1225  1227    1
   921  1225  1228    1
   922  1229  1230    1
   923  1229  1231    1
   924  1229  1232    1
   925  1233  1234    1
   926  1233  1235    1
   927  1233  1236    1
   928  1237  1238    1
   929  1237  1239    1
   930  1237  1240    1
   931  1241  1242    1
   932  1241  1243    1
   933  1241  1244    1
   934  1245  1246    1
   935  1245  1247    1
   936  1245  1248    1
   937  1249  1250    1
   938  1249  1251    1
   939  1249  1252    1
   940  1253  1254    1
   941  1253  1255    1
   942  1253  1256    1
   943  1257  1258    1
   944  1257  1259    1
   945  1257  1260    1
   946  1261  1262    1
   947  1261  1263    1
   948  1261  1264    1
   949  1265  1266    1
   950  1265  1267    1
   951  1265  1268    1
   952  1269  1270    1
   953  1269  1271    1
   954  1269  1272    1
   955  1273  1274    1
   956  1273  1275    1
   957  1273  1276    1
   958  1277  1278    1
   959  1277  1279    1
   960  1277  1280    1
   961  1281  1282    1
   962  1281  1283    1
   963  1281  1284    1
   964  1285  1286    1
   965  1285  1287    1
   966  1285  1288    1
   967  1289  1290    1
   968  1289  1291    1
   969  1289  1292    1
   970  1293  1294    1
   971  1293  1295    1
   972  1293  1296    1
   973  1297  1298    1
   974  1297  1299    1
   975  1297  1300    1
   976  1301  1302    1
   977  1301  1303    1
   978  1301  1304    1
   979  1305  1306    1
   980  1305  1307    1
   981  1305  1308    1
   982  1309  1310    1
   983  1309  1311    1
   984  1309  1312    1
   985  1313  1314    1
   986  1313  1315    1
   987  1313  1316    1
   988  1317  1318    1
   989  1317  1319    1
   990  1317  1320    1
   991  1321  1322    1
   992  1321  1323    1
   993  1321  1324    1
   994  1325  1326    1
   995  1325  1327    1
   996  1325  1328    1
   997  1329  1330    1
   998  1329  1331    1
   999  1329  1332    1
  1000  1333  1334    1
  1001  1333  1335    1
  1002  1333  1336    1
  1003  1337  1338    1
  1004  1337  1339    1
  1005  1337  1340    1
  1006  1341  1342    1
  1007  1341  1343    1
  1008  1341  1344    1
  1009  1345  1346    1
  1010  1345  1347    1
  1011  1345  1348    1
  1012  1349  1350    1
  1013  1349  1351    1
  1014  1349  1352    1
  1015  1353  1354    1
  1016  1353  1355    1
  1017  1353  1356    1
  1018  1357  1358    1
  1019  1357  1359    1
  1020  1357  1360    1
  1021  1361  1362    1
  1022  1361  1363    1
  1023  1361  1364    1
  1024  1365  1366    1
  1025  1365  1367    1
  1026  1365  1368    1
  1027  1369  1370    1
  1028  1369  1371    1
  1029  1369  1372    1
  1030  1373  1374    1
  1031  1373  1375    1
  1032  1373  1376    1
  1033  1377  1378    1
  1034  1377  1379    1
  1035  1377  1380    1
  1036  1381  1382    1
  1037  1381  1383    1
  1038  1381  1384    1
  1039  1385  1386    1
  1040  1385  1387    1
  1041  1385  1388    1
  1042  1389  1390    1
  1043  1389  1391    1
  1044  1389  1392    1
  1045  1393  1394    1
  1046  1393  1395    1
  1047  1393  1396    1
  1048  1397  1398    1
  1049  1397  1399    1
  1050  1397  1400    1
  1051  1401  1402    1
  1052  1401  1403    1
  1053  1401  1404    1
  1054  1405  1406    1
  1055  1405  1407    1
  1056  1405  1408    1
  1057  1409  1410    1
  1058  1409  1411    1
  1059  1409  1412    1
  1060  1413  1414    1
  1061  1413  1415    1
  1062  1413  1416    1
  1063  1417  1418    1
  1064  1417  1419    1
  1065  1417  1420    1
  1066  1421  1422    1
  1067  1421  1423    1
  1068  1421  1424    1
  1069  1425  1426    1
  1070  1425  1427    1
  1071  1425  1428    1
  1072  1429  1430    1
  1073  1429  1431    1
  1074  1429  1432    1
  1075  1433  1434    1
  1076  1433  1435    1
  1077  1433  1436    1
  1078  1437  1438    1
  1079  1437  1439    1
  1080  1437  1440    1
  1081  1441  1442    1
  1082  1441  1443    1
  1083  1441  1444    1
  1084  1445  1446    1
  1085  1445  1447    1
  1086  1445  1448    1
  1087  1449  1450    1
  1088  1449  1451    1
  1089  1449  1452    1
  1090  1453  1454    1
  1091  1453  1455    1
  1092  1453  1456    1
  1093  1457  1458    1
  1094  1457  1459    1
  1095  1457  1460    1
  1096  1461  1462    1
  1097  1461  1463    1
  1098  1461  1464    1
  1099  1465  1466    1
  1100  1465  1467    1
  1101  1465  1468    1
  1102  1469  1470    1
  1103  1469  1471    1
  1104  1469  1472    1
  1105  1473  1474    1
  1106  1473  1475    1
  1107  1473  1476    1
  1108  1477  1478    1
  1109  1477  1479    1
  1110  1477  1480    1
  1111  1481  1482    1
  1112  1481  1483    1
  1113  1481  1484    1
  1114  1485  1486    1
  1115  1485  1487    1
  1116  1485  1488    1
  1117  1489  1490    1
  1118  1489  1491    1
  1119  1489  1492    1
  1120  1493  1494    1
  1121  1493  1495    1
  1122  1493  1496    1
  1123  1497  1498    1
  1124  1497  1499    1
  1125  1497  1500    1
  1126  1501  1502    1
  1127  1501  1503    1
  1128  1501  1504    1
  1129  1505  1506    1
  1130  1505  1507    1
  1131  1505  1508    1
  1132  1509  1510    1
  1133  1509  1511    1
  1134  1509  1512    1
  1135  1513  1514    1
  1136  1513  1515    1
  1137  1513  1516    1
  1138  1517  1518    1
  1139  1517  1519    1
  1140  1517  1520    1
  1141  1521  1522    1
  1142  1521  1523    1
  1143  1521  1524    1
  1144  1525  1526    1
  1145  1525  1527    1
  1146  1525  1528    1
  1147  1529  1530    1
  1148  1529  1531    1
  1149  1529  1532    1
  1150  1533  1534    1
  1151  1533  1535    1
  1152  1533  1536    1
  1153  1537  1538    1
  1154  1537  1539    1
  1155  1537  1540    1
  1156  1541  1542    1
  1157  1541  1543    1
  1158  1541  1544    1
  1159  1545  1546    1
  1160  1545  1547    1
  1161  1545  1548    1
  1162  1549  1550    1
  1163  1549  1551    1
  1164  1549  1552    1
  1165  1553  1554    1
  1166  1553  1555    1
  1167  1553  1556    1
  1168  1557  1558    1
  1169  1557  1559    1
  1170  1557  1560    1
  1171  1561  1562    1
  1172  1561  1563    1
  1173  1561  1564    1
  1174  1565  1566    1
  1175  1565  1567    1
  1176  1565  1568    1
  1177  1569  1570    1
  1178  1569  1571    1
  1179  1569  1572    1
  1180  1573  1574    1
  1181  1573  1575    1
  1182  1573  1576    1
  1183  1577  1578    1
  1184  1577  1579    1
  1185  1577  1580    1
  1186  1581  1582    1
  1187  1581  1583    1
  1188  1581  1584    1
  1189  1585  1586    1
  1190  1585  1587    1
  1191  1585  1588    1
  1192  1589  1590    1
  1193  1589  1591    1
  1194  1589  1592    1
  1195  1593  1594    1
  1196  1593  1595    1
  1197  1593  1596    1
  1198  1597  1598    1
  1199  1597  1599    1
  1200  1597  1600    1
  1201  1601  1602    1
  1202  1601  1603    1
  1203  1601  1604    1
  1204  1605  1606    1
  1205  1605  1607    1
  1206  1605  1608    1
  1207  1609  1610    1
  1208  1609  1611    1
  1209  1609  1612    1
  1210  1613  1614    1
  1211  1613  1615    1
  1212  1613  1616    1
  1213  1617  1618    1
  1214  1617  1619    1
  1215  1617  1620    1
  1216  1621  1622    1
  1217  1621  1623    1
  1218  1621  1624    1
  1219  1625  1626    1
  1220  1625  1627    1
  1221  1625  1628    1
  1222  1629  1630    1
  1223  1629  1631    1
  1224  1629  1632    1
  1225  1633  1634    1
  1226  1633  1635    1
  1227  1633  1636    1
  1228  1637  1638    1
  1229  1637  1639    1
  1230  1637  1640    1
  1231  1641  1642    1
  1232  1641  1643    1
  1233  1641  1644    1
  1234  1645  1646    1
  1235  1645  1647    1
  1236  1645  1648    1
  1237  1649  1650    1
  1238  1649  1651    1
  1239  1649  1652    1
  1240  1653  1654    1
  1241  1653  1655    1
  1242  1653  1656    1
  1243  1657  1658    1
  1244  1657  1659    1
  1245  1657  1660    1
  1246  1661  1662    1
  1247  1661  1663    1
  1248  1661  1664    1
  1249  1665  1666    1
  1250  1665  1667    1
  1251  1665  1668    1
  1252  1669  1670    1
  1253  1669  1671    1
  1254  1669  1672    1
  1255  1673  1674    1
  1256  1673  1675    1
  1257  1673  1676    1
  1258  1677  1678    1
  1259  1677  1679    1
  1260  1677  1680    1
  1261  1681  1682    1
  1262  1681  1683    1
  1263  1681  1684    1
  1264  1685  1686    1
  1265  1685  1687    1
  1266  1685  1688    1
  1267  1689  1690    1
  1268  1689  1691    1
  1269  1689  1692    1
  1270  1693  1694    1
  1271  1693  1695    1
  1272  1693  1696    1
  1273  1697  1698    1
  1274  1697  1699    1
  1275  1697  1700    1
  1276  1701  1702    1
  1277  1701  1703    1
  1278  1701  1704    1
  1279  1705  1706    1
  1280  1705  1707    1
  1281  1705  1708    1
  1282  1709  1710    1
  1283  1709  1711    1
  1284  1709  1712    1
  1285  1713  1714    1
  1286  1713  1715    1
  1287  1713  1716    1
  1288  1717  1718    1
  1289  1717  1719    1
  1290  1717  1720    1
  1291  1721  1722    1
  1292  1721  1723    1
  1293  1721  1724    1
  1294  1725  1726    1
  1295  1725  1727    1
  1296  1725  1728    1
  1297  1729  1730    1
  1298  1729  1731    1
  1299  1729  1732    1
  1300  1733  1734    1
  1301  1733  1735    1
  1302  1733  1736    1
  1303  1737  1738    1
  1304  1737  1739    1
  1305  1737  1740    1
  1306  1741  1742    1
  1307  1741  1743    1
  1308  1741  1744    1
  1309  1745  1746    1
  1310  1745  1747    1
  1311  1745  1748    1
  1312  1749  1750    1
  1313  1749  1751    1
  1314  1749  1752    1
  1315  1753  1754    1
  1316  1753  1755    1
  1317  1753  1756    1
  1318  1757  1758    1
  1319  1757  1759    1
  1320  1757  1760    1
  1321  1761  1762    1
  1322  1761  1763    1
  1323  1761  1764    1
  1324  1765  1766    1
  1325  1765  1767    1
  1326  1765  1768    1
  1327  1769  1770    1
  1328  1769  1771    1
  1329  1769  1772    1
  1330  1773  1774    1
  1331  1773  1775    1
  1332  1773  1776    1
  1333  1777  1778    1
  1334  1777  1779    1
  1335  1777  1780    1
  1336  1781  1782    1
  1337  1781  1783    1
  1338  1781  1784    1
  1339  1785  1786    1
  1340  1785  1787    1
  1341  1785  1788    1
  1342  1789  1790    1
  1343  1789  1791    1
  1344  1789  1792    1
  1345  1793  1794    1
  1346  1793  1795    1
  1347  1793  1796    1
  1348  1797  1798    1
  1349  1797  1799    1
  1350  1797  1800    1
  1351  1801  1802    1
  1352  1801  1803    1
  1353  1801  1804    1
  1354  1805  1806    1
  1355  1805  1807    1
  1356  1805  1808    1
  1357  1809  1810    1
  1358  1809  1811    1
  1359  1809  1812    1
  1360  1813  1814    1
  1361  1813  1815    1
  1362  1813  1816    1
  1363  1817  1818    1
  1364  1817  1819    1
  1365  1817  1820    1
  1366  1821  1822    1
  1367  1821  1823    1
  1368  1821  1824    1
  1369  1825  1826    1
  1370  1825  1827    1
  1371  1825  1828    1
  1372  1829  1830    1
  1373  1829  1831    1
  1374  1829  1832    1
  1375  1833  1834    1
  1376  1833  1835    1
  1377  1833  1836    1
  1378  1837  1838    1
  1379  1837  1839    1
  1380  1837  1840    1
  1381  1841  1842    1
  1382  1841  1843    1
  1383  1841  1844    1
  1384  1845  1846    1
  1385  1845  1847    1
  1386  1845  1848    1
  1387  1849  1850    1
  1388  1849  1851    1
  1389  1849  1852    1
  1390  1853  1854    1
  1391  1853  1855    1
  1392  1853  1856    1
  1393  1857  1858    1
  1394  1857  1859    1
  1395  1857  1860    1
  1396  1861  1862    1
  1397  1861  1863    1
  1398  1861  1864    1
  1399  1865  1866    1
  1400  1865  1867    1
  1401  1865  1868    1
  1402  1869  1870    1
  1403  1869  1871    1
  1404  1869  1872    1
  1405  1873  1874    1
  1406  1873  1875    1
  1407  1873  1876    1
  1408  1877  1878    1
  1409  1877  1879    1
  1410  1877  1880    1
  1411  1881  1882    1
  1412  1881  1883    1
  1413  1881  1884    1
  1414  1885  1886    1
  1415  1885  1887    1
  1416  1885  1888    1
  1417  1889  1890    1
  1418  1889  1891    1
  1419  1889  1892    1
  1420  1893  1894    1
  1421  1893  1895    1
  1422  1893  1896    1
  1423  1897  1898    1
  1424  1897  1899    1
  1425  1897  1900    1
  1426  1901  1902    1
  1427  1901  1903    1
  1428  1901  1904    1
  1429  1905  1906    1
  1430  1905  1907    1
  1431  1905  1908    1
  1432  1909  1910    1
  1433  1909  1911    1
  1434  1909  1912    1
  1435  1913  1914    1
  1436  1913  1915    1
  1437  1913  1916    1
  1438  1917  1918    1
  1439  1917  1919    1
  1440  1917  1920    1
  1441  1921  1922    1
  1442  1921  1923    1
  1443  1921  1924    1
  1444  1925  1926    1
  1445  1925  1927    1
  1446  1925  1928    1
  1447  1929  1930    1
  1448  1929  1931    1
  1449  1929  1932    1
  1450  1933  1934    1
  1451  1933  1935    1
  1452  1933  1936    1
  1453  1937  1938    1
  1454  1937  1939    1
  1455  1937  1940    1
  1456  1941  1942    1
  1457  1941  1943    1
  1458  1941  1944    1
  1459  1945  1946    1
  1460  1945  1947    1
  1461  1945  1948    1
  1462  1949  1950    1
  1463  1949  1951    1
  1464  1949  1952    1
  1465  1953  1954    1
  1466  1953  1955    1
  1467  1953  1956    1
  1468  1957  1958    1
  1469  1957  1959    1
  1470  1957  1960    1
  1471  1961  1962    1
  1472  1961  1963    1
  1473  1961  1964    1
  1474  1965  1966    1
  1475  1965  1967    1
  1476  1965  1968    1
  1477  1969  1970    1
  1478  1969  1971    1
  1479  1969  1972    1
  1480  1973  1974    1
  1481  1973  1975    1
  1482  1973  1976    1
  1483  1977  1978    1
  1484  1977  1979    1
  1485  1977  1980    1
  1486  1981  1982    1
  1487  1981  1983    1
  1488  1981  1984    1
  1489  1985  1986    1
  1490  1985  1987    1
  1491  1985  1988    1
  1492  1989  1990    1
  1493  1989  1991    1
  1494  1989  1992    1
  1495  1993  1994    1
  1496  1993  1995    1
  1497  1993  1996    1
  1498  1997  1998    1
  1499  1997  1999    1
  1500  1997  2000    1
  1501  2001  2002    1
  1502  2001  2003    1
  1503  2001  2004    1
  1504  2005  2006    1
  1505  2005  2007    1
  1506  2005  2008    1
  1507  2009  2010    1
  1508  2009  2011    1
  1509  2009  2012    1
  1510  2013  2014    1
  1511  2013  2015    1
  1512  2013  2016    1
  1513  2017  2018    1
  1514  2017  2019    1
  1515  2017  2020    1
  1516  2021  2022    1
  1517  2021  2023    1
  1518  2021  2024    1
  1519  2025  2026    1
  1520  2025  2027    1
  1521  2025  2028    1
  1522  2029  2030    1
  1523  2029  2031    1
  1524  2029  2032    1
  1525  2033  2034    1
  1526  2033  2035    1
  1527  2033  2036    1
  1528  2037  2038    1
  1529  2037  2039    1
  1530  2037  2040    1
  1531  2041  2042    1
  1532  2041  2043    1
  1533  2041  2044    1
  1534  2045  2046    1
  1535  2045  2047    1
  1536  2045  2048    1
  1537  2049  2050    1
  1538  2049  2051    1
  1539  2049  2052    1
  1540  2053  2054    1
  1541  2053  2055    1
  1542  2053  2056    1
  1543  2057  2058    1
  1544  2057  2059    1
  1545  2057  2060    1
  1546  2061  2062    1
  1547  2061  2063    1
  1548  2061  2064    1
  1549  2065  2066    1
  1550  2065  2067    1
  1551  2065  2068    1
  1552  2069  2070    1
  1553  2069  2071    1
  1554  2069  2072    1
  1555  2073  2074    1
  1556  2073  2075    1
  1557  2073  2076    1
  1558  2077  2078    1
  1559  2077  2079    1
  1560  2077  2080    1
  1561  2081  2082    1
  1562  2081  2083    1
  1563  2081  2084    1
  1564  2085  2086    1
  1565  2085  2087    1
  1566  2085  2088    1
  1567  2089  2090    1
  1568  2089  2091    1
  1569  2089  2092    1
  1570  2093  2094    1
  1571  2093  2095    1
  1572  2093  2096    1
  1573  2097  2098    1
  1574  2097  2099    1
  1575  2097  2100    1
  1576  2101  2102    1
  1577  2101  2103    1
  1578  2101  2104    1
  1579  2105  2106    1
  1580  2105  2107    1
  1581  2105  2108    1
  1582  2109  2110    1
  1583  2109  2111    1
  1584  2109  2112    1
  1585  2113  2114    1
  1586  2113  2115    1
  1587  2113  2116    1
  1588  2117  2118    1
  1589  2117  2119    1
  1590  2117  2120    1
  1591  2121  2122    1
  1592  2121  2123    1
  1593  2121  2124    1
  1594  2125  2126    1
  1595  2125  2127    1
  1596  2125  2128    1
  1597  2129  2130    1
  1598  2129  2131    1
  1599  2129  2132    1
  1600  2133  2134    1
  1601  2133  2135    1
  1602  2133  2136    1
  1603  2137  2138    1
  1604  2137  2139    1
  1605  2137  2140    1
  1606  2141  2142    1
  1607  2141  2143    1
  1608  2141  2144    1
  1609  2145  2146    1
  1610  2145  2147    1
  1611  2145  2148    1
  1612  2149  2150    1
  1613  2149  2151    1
  1614  2149  2152    1
  1615  2153  2154    1
  1616  2153  2155    1
  1617  2153  2156    1
  1618  2157  2158    1
  1619  2157  2159    1
  1620  2157  2160    1
  1621  2161  2162    1
  1622  2161  2163    1
  1623  2161  2164    1
  1624  2165  2166    1
  1625  2165  2167    1
  1626  2165  2168    1
  1627  2169  2170    1
  1628  2169  2171    1
  1629  2169  2172    1
  1630  2173  2174    1
  1631  2173  2175    1
  1632  2173  2176    1
  1633  2177  2178    1
  1634  2177  2179    1
  1635  2177  2180    1
  1636  2181  2182    1
  1637  2181  2183    1
  1638  2181  2184    1
  1639  2185  2186    1
  1640  2185  2187    1
  1641  2185  2188    1
  1642  2189  2190    1
  1643  2189  2191    1
  1644  2189  2192    1
  1645  2193  2194    1
  1646  2193  2195    1
  1647  2193  2196    1
  1648  2197  2198    1
  1649  2197  2199    1
  1650  2197  2200    1
  1651  2201  2202    1
  1652  2201  2203    1
  1653  2201  2204    1
  1654  2205  2206    1
  1655  2205  2207    1
  1656  2205  2208    1
  1657  2209  2210    1
  1658  2209  2211    1
  1659  2209  2212    1
  1660  2213  2214    1
  1661  2213  2215    1
  1662  2213  2216    1
  1663  2217  2218    1
  1664  2217  2219    1
  1665  2217  2220    1
  1666  2221  2222    1
  1667  2221  2223    1
  1668  2221  2224    1
  1669  2225  2226    1
  1670  2225  2227    1
  1671  2225  2228    1
  1672  2229  2230    1
  1673  2229  2231    1
  1674  2229  2232    1
  1675  2233  2234    1
  1676  2233  2235    1
  1677  2233  2236    1
  1678  2237  2238    1
  1679  2237  2239    1
  1680  2237  2240    1
  1681  2241  2242    1
  1682  2241  2243    1
  1683  2241  2244    1
  1684  2245  2246    1
  1685  2245  2247    1
  1686  2245  2248    1
  1687  2249  2250    1
  1688  2249  2251    1
  1689  2249  2252    1
  1690  2253  2254    1
  1691  2253  2255    1
  1692  2253  2256    1
  1693  2257  2258    1
  1694  2257  2259    1
  1695  2257  2260    1
  1696  2261  2262    1
  1697  2261  2263    1
  1698  2261  2264    1
  1699  2265  2266    1
  1700  2265  2267    1
  1701  2265  2268    1
  1702  2269  2270    1
  1703  2269  2271    1
  1704  2269  2272    1
  1705  2273  2274    1
  1706  2273  2275    1
  1707  2273  2276    1
  1708  2277  2278    1
  1709  2277  2279    1
  1710  2277  2280    1
  1711  2281  2282    1
  1712  2281  2283    1
  1713  2281  2284    1
  1714  2285  2286    1
  1715  2285  2287    1
  1716  2285  2288    1
  1717  2289  2290    1
  1718  2289  2291    1
  1719  2289  2292    1
  1720  2293  2294    1
  1721  2293  2295    1
  1722  2293  2296    1
  1723  2297  2298    1
  1724  2297  2299    1
  1725  2297  2300    1
  1726  2301  2302    1
  1727  2301  2303    1
  1728  2301  2304    1
  1729  2305  2306    1
  1730  2305  2307    1
  1731  2305  2308    1
  1732  2309  2310    1
  1733  2309  2311    1
  1734  2309  2312    1
  1735  2313  2314    1
  1736  2313  2315    1
  1737  2313  2316    1
  1738  2317  2318    1
  1739  2317  2319    1
  1740  2317  2320    1
  1741  2321  2322    1
  1742  2321  2323    1
  1743  2321  2324    1
  1744  2325  2326    1
  1745  2325  2327    1
  1746  2325  2328    1
  1747  2329  2330    1
  1748  2329  2331    1
  1749  2329  2332    1
  1750  2333  2334    1
  1751  2333  2335    1
  1752  2333  2336    1
  1753  2337  2338    1
  1754  2337  2339    1
  1755  2337  2340    1
  1756  2341  2342    1
  1757  2341  2343    1
  1758  2341  2344    1
  1759  2345  2346    1
  1760  2345  2347    1
  1761  2345  2348    1
  1762  2349  2350    1
  1763  2349  2351    1
  1764  2349  2352    1
  1765  2353  2354    1
  1766  2353  2355    1
  1767  2353  2356    1
  1768  2357  2358    1
  1769  2357  2359    1
  1770  2357  2360    1
  1771  2361  2362    1
  1772  2361  2363    1
  1773  2361  2364    1
  1774  2365  2366    1
  1775  2365  2367    1
  1776  2365  2368    1
  1777  2369  2370    1
  1778  2369  2371    1
  1779  2369  2372    1
  1780  2373  2374    1
  1781  2373  2375    1
  1782  2373  2376    1
  1783  2377  2378    1
  1784  2377  2379    1
  1785  2377  2380    1
  1786  2381  2382    1
  1787  2381  2383    1
  1788  2381  2384    1
  1789  2385  2386    1
  1790  2385  2387    1
  1791  2385  2388    1
  1792  2389  2390    1
  1793  2389  2391    1
  1794  2389  2392    1
  1795  2393  2394    1
  1796  2393  2395    1
  1797  2393  2396    1
  1798  2397  2398    1
  1799  2397  2399    1
  1800  2397  2400    1
  1801  2401  2402    1
  1802  2401  2403    1
  1803  2401  2404    1
  1804  2405  2406    1
  1805  2405  2407    1
  1806  2405  2408    1
  1807  2409  2410    1
  1808  2409  2411    1
  1809  2409  2412    1
  1810  2413  2414    1
  1811  2413  2415    1
  1812  2413  2416    1
  1813  2417  2418    1
  1814  2417  2419    1
  1815  2417  2420    1
  1816  2421  2422    1
  1817  2421  2423    1
  1818  2421  2424    1
  1819  2425  2426    1
  1820  2425  2427    1
  1821  2425  2428    1
  1822  2429  2430    1
  1823  2429  2431    1
  1824  2429  2432    1
  1825  2433  2434    1
  1826  2433  2435    1
  1827  2433  2436    1
  1828  2437  2438    1
  1829  2437  2439    1
  1830  2437  2440    1
  1831  2441  2442    1
  1832  2441  2443    1
  1833  2441  2444    1
  1834  2445  2446    1
  1835  2445  2447    1
  1836  2445  2448    1
  1837  2449  2450    1
  1838  2449  2451    1
  1839  2449  2452    1
  1840  2453  2454    1
  1841  2453  2455    1
  1842  2453  2456    1
  1843  2457  2458    1
  1844  2457  2459    1
  1845  2457  2460    1
  1846  2461  2462    1
  1847  2461  2463    1
  1848  2461  2464    1
  1849  2465  2466    1
  1850  2465  2467    1
  1851  2465  2468    1
  1852  2469  2470    1
  1853  2469  2471    1
  1854  2469  2472    1
  1855  2473  2474    1
  1856  2473  2475    1
  1857  2473  2476    1
  1858  2477  2478    1
  1859  2477  2479    1
  1860  2477  2480    1
  1861  2481  2482    1
  1862  2481  2483    1
  1863  2481  2484    1
  1864  2485  2486    1
  1865  2485  2487    1
  1866  2485  2488    1
  1867  2489  2490    1
  1868  2489  2491    1
  1869  2489  2492    1
  1870  2493  2494    1
  1871  2493  2495    1
  1872  2493  2496    1
  1873  2497  2498    1
  1874  2497  2499    1
  1875  2497  2500    1
  1876  2501  2502    1
  1877  2501  2503    1
  1878  2501  2504    1
  1879  2505  2506    1
  1880  2505  2507    1
  1881  2505  2508    1
  1882  2509  2510    1
  1883  2509  2511    1
  1884  2509  2512    1
  1885  2513  2514    1
  1886  2513  2515    1
  1887  2513  2516    1
  1888  2517  2518    1
  1889  2517  2519    1
  1890  2517  2520    1
  1891  2521  2522    1
  1892  2521  2523    1
  1893  2521  2524    1
  1894  2525  2526    1
  1895  2525  2527    1
  1896  2525  2528    1
  1897  2529  2530    1
  1898  2529  2531    1
  1899  2529  2532    1
  1900  2533  2534    1
  1901  2533  2535    1
  1902  2533  2536    1
  1903  2537  2538    1
  1904  2537  2539    1
  1905  2537  2540    1
  1906  2541  2542    1
  1907  2541  2543    1
  1908  2541  2544    1
  1909  2545  2546    1
  1910  2545  2547    1
  1911  2545  2548    1
  1912  2549  2550    1
  1913  2549  2551    1
  1914  2549  2552    1
  1915  2553  2554    1
  1916  2553  2555    1
  1917  2553  2556    1
  1918  2557  2558    1
  1919  2557  2559    1
  1920  2557  2560    1
  1921  2561  2562    1
  1922  2561  2563    1
  1923  2561  2564    1
  1924  2565  2566    1
  1925  2565  2567    1
  1926  2565  2568    1
  1927  2569  2570    1
  1928  2569  2571    1
  1929  2569  2572    1
  1930  2573  2574    1
  1931  2573  2575    1
  1932  2573  2576    1
  1933  2577  2578    1
  1934  2577  2579    1
  1935  2577  2580    1
  1936  2581  2582    1
  1937  2581  2583    1
  1938  2581  2584    1
  1939  2585  2586    1
  1940  2585  2587    1
  1941  2585  2588    1
  1942  2589  2590    1
  1943  2589  2591    1
  1944  2589  2592    1
  1945  2593  2594    1
  1946  2593  2595    1
  1947  2593  2596    1
  1948  2597  2598    1
  1949  2597  2599    1
  1950  2597  2600    1
  1951  2601  2602    1
  1952  2601  2603    1
  1953  2601  2604    1
  1954  2605  2606    1
  1955  2605  2607    1
  1956  2605  2608    1
  1957  2609  2610    1
  1958  2609  2611    1
  1959  2609  2612    1
  1960  2613  2614    1
  1961  2613  2615    1
  1962  2613  2616    1
  1963  2617  2618    1
  1964  2617  2619    1
  1965  2617  2620    1
  1966  2621  2622    1
  1967  2621  2623    1
  1968  2621  2624    1
  1969  2625  2626    1
  1970  2625  2627    1
  1971  2625  2628    1
  1972  2629  2630    1
  1973  2629  2631    1
  1974  2629  2632    1
  1975  2633  2634    1
  1976  2633  2635    1
  1977  2633  2636    1
  1978  2637  2638    1
  1979  2637  2639    1
  1980  2637  2640    1
  1981  2641  2642    1
  1982  2641  2643    1
  1983  2641  2644    1
  1984  2645  2646    1
  1985  2645  2647    1
  1986  2645  2648    1
  1987  2649  2650    1
  1988  2649  2651    1
  1989  2649  2652    1
  1990  2653  2654    1
  1991  2653  2655    1
  1992  2653  2656    1
  1993  2657  2658    1
  1994  2657  2659    1
  1995  2657  2660    1
  1996  2661  2662    1
  1997  2661  2663    1
  1998  2661  2664    1
  1999  2665  2666    1
  2000  2665  2667    1
  2001  2665  2668    1
  2002  2669  2670    1
  2003  2669  2671    1
  2004  2669  2672    1
  2005  2673  2674    1
  2006  2673  2675    1
  2007  2673  2676    1
  2008  2677  2678    1
  2009  2677  2679    1
  2010  2677  2680    1
  2011  2681  2682    1
  2012  2681  2683    1
  2013  2681  2684    1
  2014  2685  2686    1
  2015  2685  2687    1
  2016  2685  2688    1
  2017  2689  2690    1
  2018  2689  2691    1
  2019  2689  2692    1
  2020  2693  2694    1
  2021  2693  2695    1
  2022  2693  2696    1
  2023  2697  2698    1
  2024  2697  2699    1
  2025  2697  2700    1
  2026  2701  2702    1
  2027  2701  2703    1
  2028  2701  2704    1
  2029  2705  2706    1
  2030  2705  2707    1
  2031  2705  2708    1
  2032  2709  2710    1
  2033  2709  2711    1
  2034  2709  2712    1
  2035  2713  2714    1
  2036  2713  2715    1
  2037  2713  2716    1
  2038  2717  2718    1
  2039  2717  2719    1
  2040  2717  2720    1
  2041  2721  2722    1
  2042  2721  2723    1
  2043  2721  2724    1
  2044  2725  2726    1
  2045  2725  2727    1
  2046  2725  2728    1
  2047  2729  2730    1
  2048  2729  2731    1
  2049  2729  2732    1
  2050  2733  2734    1
  2051  2733  2735    1
  2052  2733  2736    1
  2053  2737  2738    1
  2054  2737  2739    1
  2055  2737  2740    1
  2056  2741  2742    1
  2057  2741  2743    1
  2058  2741  2744    1
  2059  2745  2746    1
  2060  2745  2747    1
  2061  2745  2748    1
  2062  2749  2750    1
  2063  2749  2751    1
  2064  2749  2752    1
  2065  2753  2754    1
  2066  2753  2755    1
  2067  2753  2756    1
  2068  2757  2758    1
  2069  2757  2759    1
  2070  2757  2760    1
  2071  2761  2762    1
  2072  2761  2763    1
  2073  2761  2764    1
  2074  2765  2766    1
  2075  2765  2767    1
  2076  2765  2768    1
  2077  2769  2770    1
  2078  2769  2771    1
  2079  2769  2772    1
  2080  2773  2774    1
  2081  2773  2775    1
  2082  2773  2776    1
  2083  2777  2778    1
  2084  2777  2779    1
  2085  2777  2780    1
  2086  2781  2782    1
  2087  2781  2783    1
  2088  2781  2784    1
  2089  2785  2786    1
  2090  2785  2787    1
  2091  2785  2788    1
  2092  2789  2790    1
  2093  2789  2791    1
  2094  2789  2792    1
  2095  2793  2794    1
  2096  2793  2795    1
  2097  2793  2796    1
  2098  2797  2798    1
  2099  2797  2799    1
  2100  2797  2800    1
  2101  2801  2802    1
  2102  2801  2803    1
  2103  2801  2804    1
  2104  2805  2806    1
  2105  2805  2807    1
  2106  2805  2808    1
  2107  2809  2810    1
  2108  2809  2811    1
  2109  2809  2812    1
  2110  2813  2814    1
  2111  2813  2815    1
  2112  2813  2816    1
  2113  2817  2818    1
  2114  2817  2819    1
  2115  2817  2820    1
  2116  2821  2822    1
  2117  2821  2823    1
  2118  2821  2824    1
  2119  2825  2826    1
  2120  2825  2827    1
  2121  2825  2828    1
  2122  2829  2830    1
  2123  2829  2831    1
  2124  2829  2832    1
  2125  2833  2834    1
  2126  2833  2835    1
  2127  2833  2836    1
  2128  2837  2838    1
  2129  2837  2839    1
  2130  2837  2840    1
  2131  2841  2842    1
  2132  2841  2843    1
  2133  2841  2844    1
  2134  2845  2846    1
  2135  2845  2847    1
  2136  2845  2848    1
  2137  2849  2850    1
  2138  2849  2851    1
  2139  2849  2852    1
  2140  2853  2854    1
  2141  2853  2855    1
  2142  2853  2856    1
  2143  2857  2858    1
  2144  2857  2859    1
  2145  2857  2860    1
  2146  2861  2862    1
  2147  2861  2863    1
  2148  2861  2864    1
  2149  2865  2866    1
  2150  2865  2867    1
  2151  2865  2868    1
  2152  2869  2870    1
  2153  2869  2871    1
  2154  2869  2872    1
  2155  2873  2874    1
  2156  2873  2875    1
  2157  2873  2876    1
  2158  2877  2878    1
  2159  2877  2879    1
  2160  2877  2880    1
  2161  2881  2882    1
  2162  2881  2883    1
  2163  2881  2884    1
  2164  2885  2886    1
  2165  2885  2887    1
  2166  2885  2888    1
  2167  2889  2890    1
  2168  2889  2891    1
  2169  2889  2892    1
  2170  2893  2894    1
  2171  2893  2895    1
  2172  2893  2896    1
  2173  2897  2898    1
  2174  2897  2899    1
  2175  2897  2900    1
  2176  2901  2902    1
  2177  2901  2903    1
  2178  2901  2904    1
  2179  2905  2906    1
  2180  2905  2907    1
  2181  2905  2908    1
  2182  2909  2910    1
  2183  2909  2911    1
  2184  2909  2912    1
  2185  2913  2914    1
  2186  2913  2915    1
  2187  2913  2916    1
  2188  2917  2918    1
  2189  2917  2919    1
  2190  2917  2920    1
  2191  2921  2922    1
  2192  2921  2923    1
  2193  2921  2924    1
  2194  2925  2926    1
  2195  2925  2927    1
  2196  2925  2928    1
  2197  2929  2930    1
  2198  2929  2931    1
  2199  2929  2932    1
  2200  2933  2934    1
  2201  2933  2935    1
  2202  2933  2936    1
  2203  2937  2938    1
  2204  2937  2939    1
  2205  2937  2940    1
  2206  2941  2942    1
  2207  2941  2943    1
  2208  2941  2944    1
  2209  2945  2946    1
  2210  2945  2947    1
  2211  2945  2948    1
  2212  2949  2950    1
  2213  2949  2951    1
  2214  2949  2952    1
  2215  2953  2954    1
  2216  2953  2955    1
  2217  2953  2956    1
  2218  2957  2958    1
  2219  2957  2959    1
  2220  2957  2960    1
  2221  2961  2962    1
  2222  2961  2963    1
  2223  2961  2964    1
  2224  2965  2966    1
  2225  2965  2967    1
  2226  2965  2968    1
  2227  2969  2970    1
  2228  2969  2971    1
  2229  2969  2972    1
  2230  2973  2974    1
  2231  2973  2975    1
  2232  2973  2976    1
  2233  2977  2978    1
  2234  2977  2979    1
  2235  2977  2980    1
  2236  2981  2982    1
  2237  2981  2983    1
  2238  2981  2984    1
  2239  2985  2986    1
  2240  2985  2987    1
  2241  2985  2988    1
  2242  2989  2990    1
  2243  2989  2991    1
  2244  2989  2992    1
  2245  2993  2994    1
  2246  2993  2995    1
  2247  2993  2996    1
  2248  2997  2998    1
  2249  2997  2999    1
  2250  2997  3000    1
  2251  3001  3002    1
  2252  3001  3003    1
  2253  3001  3004    1
  2254  3005  3006    1
  2255  3005  3007    1
  2256  3005  3008    1
  2257  3009  3010    1
  2258  3009  3011    1
  2259  3009  3012    1
  2260  3013  3014    1
  2261  3013  3015    1
  2262  3013  3016    1
  2263  3017  3018    1
  2264  3017  3019    1
  2265  3017  3020    1
  2266  3021  3022    1
  2267  3021  3023    1
  2268  3021  3024    1
  2269  3025  3026    1
  2270  3025  3027    1
  2271  3025  3028    1
  2272  3029  3030    1
  2273  3029  3031    1
  2274  3029  3032    1
  2275  3033  3034    1
  2276  3033  3035    1
  2277  3033  3036    1
  2278  3037  3038    1
  2279  3037  3039    1
  2280  3037  3040    1
  2281  3041  3042    1
  2282  3041  3043    1
  2283  3041  3044    1
  2284  3045  3046    1
  2285  3045  3047    1
  2286  3045  3048    1
  2287  3049  3050    1
  2288  3049  3051    1
  2289  3049  3052    1
  2290  3053  3054    1
  2291  3053  3055    1
  2292  3053  3056    1
  2293  3057  3058    1
  2294  3057  3059    1
  2295  3057  3060    1
  2296  3061  3062    1
  2297  3061  3063    1
  2298  3061  3064    1
  2299  3065  3066    1
  2300  3065  3067    1
  2301  3065  3068    1
  2302  3069  3070    1
  2303  3069  3071    1
  2304  3069  3072    1
  2305  3073  3074    1
  2306  3073  3075    1
  2307  3073  3076    1
  2308  3077  3078    1
  2309  3077  3079    1
  2310  3077  3080    1
  2311  3081  3082    1
  2312  3081  3083    1
  2313  3081  3084    1
  2314  3085  3086    1
  2315  3085  3087    1
  2316  3085  3088    1
  2317  3089  3090    1
  2318  3089  3091    1
  2319  3089  3092    1
  2320  3093  3094    1
  2321  3093  3095    1
  2322  3093  3096    1
  2323  3097  3098    1
  2324  3097  3099    1
  2325  3097  3100    1
  2326  3101  3102    1
  2327  3101  3103    1
  2328  3101  3104    1
  2329  3105  3106    1
  2330  3105  3107    1
  2331  3105  3108    1
  2332  3109  3110    1
  2333  3109  3111    1
  2334  3109  3112    1
  2335  3113  3114    1
  2336  3113  3115    1
  2337  3113  3116    1
  2338  3117  3118    1
  2339  3117  3119    1
  2340  3117  3120    1
  2341  3121  3122    1
  2342  3121  3123    1
  2343  3121  3124    1
  2344  3125  3126    1
  2345  3125  3127    1
  2346  3125  3128    1
  2347  3129  3130    1
  2348  3129  3131    1
  2349  3129  3132    1
  2350  3133  3134    1
  2351  3133  3135    1
  2352  3133  3136    1
  2353  3137  3138    1
  2354  3137  3139    1
  2355  3137  3140    1
  2356  3141  3142    1
  2357  3141  3143    1
  2358  3141  3144    1
  2359  3145  3146    1
  2360  3145  3147    1
  2361  3145  3148    1
  2362  3149  3150    1
  2363  3149  3151    1
  2364  3149  3152    1
  2365  3153  3154    1
  2366  3153  3155    1
  2367  3153  3156    1
  2368  3157  3158    1
  2369  3157  3159    1
  2370  3157  3160    1
  2371  3161  3162    1
  2372  3161  3163    1
  2373  3161  3164    1
  2374  3165  3166    1
  2375  3165  3167    1
  2376  3165  3168    1
  2377  3169  3170    1
  2378  3169  3171    1
  2379  3169  3172    1
  2380  3173  3174    1
  2381  3173  3175    1
  2382  3173  3176    1
  2383  3177  3178    1
  2384  3177  3179    1
  2385  3177  3180    1
  2386  3181  3182    1
  2387  3181  3183    1
  2388  3181  3184    1
  2389  3185  3186    1
  2390  3185  3187    1
  2391  3185  3188    1
  2392  3189  3190    1
  2393  3189  3191    1
  2394  3189  3192    1
  2395  3193  3194    1
  2396  3193  3195    1
  2397  3193  3196    1
  2398  3197  3198    1
  2399  3197  3199    1
  2400  3197  3200    1
  2401  3201  3202    1
  2402  3201  3203    1
  2403  3201  3204    1
  2404  3205  3206    1
  2405  3205  3207    1
  2406  3205  3208    1
  2407  3209  3210    1
  2408  3209  3211    1
  2409  3209  3212    1
  2410  3213  3214    1
  2411  3213  3215    1
  2412  3213  3216    1
  2413  3217  3218    1
  2414  3217  3219    1
  2415  3217  3220    1
  2416  3221  3222    1
  2417  3221  3223    1
  2418  3221  3224    1
  2419  3225  3226    1
  2420  3225  3227    1
  2421  3225  3228    1
  2422  3229  3230    1
  2423  3229  3231    1
  2424  3229  3232    1
  2425  3233  3234    1
  2426  3233  3235    1
  2427  3233  3236    1
  2428  3237  3238    1
  2429  3237  3239    1
  2430  3237  3240    1
  2431  3241  3242    1
  2432  3241  3243    1
  2433  3241  3244    1
  2434  3245  3246    1
  2435  3245  3247    1
  2436  3245  3248    1
  2437  3249  3250    1
  2438  3249  3251    1
  2439  3249  3252    1
  2440  3253  3254    1
  2441  3253  3255    1
  2442  3253  3256    1
  2443  3257  3258    1
  2444  3257  3259    1
  2445  3257  3260    1
  2446  3261  3262    1
  2447  3261  3263    1
  2448  3261  3264    1
  2449  3265  3266    1
  2450  3265  3267    1
  2451  3265  3268    1
  2452  3269  3270    1
  2453  3269  3271    1
  2454  3269  3272    1
  2455  3273  3274    1
  2456  3273  3275    1
  2457  3273  3276    1
  2458  3277  3278    1
  2459  3277  3279    1
  2460  3277  3280    1
  2461  3281  3282    1
  2462  3281  3283    1
  2463  3281  3284    1
  2464  3285  3286    1
  2465  3285  3287    1
  2466  3285  3288    1
  2467  3289  3290    1
  2468  3289  3291    1
  2469  3289  3292    1
  2470  3293  3294    1
  2471  3293  3295    1
  2472  3293  3296    1
  2473  3297  3298    1
  2474  3297  3299    1
  2475  3297  3300    1
  2476  3301  3302    1
  2477  3301  3303    1
  2478  3301  3304    1
  2479  3305  3306    1
  2480  3305  3307    1
  2481  3305  3308    1
  2482  3309  3310    1
  2483  3309  3311    1
  2484  3309  3312    1
  2485  3313  3314    1
  2486  3313  3315    1
  2487  3313  3316    1
  2488  3317  3318    1
  2489  3317  3319    1
  2490  3317  3320    1
  2491  3321  3322    1
  2492  3321  3323    1
  2493  3321  3324    1
  2494  3325  3326    1
  2495  3325  3327    1
  2496  3325  3328    1
  2497  3329  3330    1
  2498  3329  3331    1
  2499  3329  3332    1
  2500  3333  3334    1
  2501  3333  3335    1
  2502  3333  3336    1
  2503  3337  3338    1
  2504  3337  3339    1
  2505  3337  3340    1
  2506  3341  3342    1
  2507  3341  3343    1
  2508  3341  3344    1
  2509  3345  3346    1
  2510  3345  3347    1
  2511  3345  3348    1
  2512  3349  3350    1
  2513  3349  3351    1
  2514  3349  3352    1
  2515  3353  3354    1
  2516  3353  3355    1
  2517  3353  3356    1
  2518  3357  3358    1
  2519  3357  3359    1
  2520  3357  3360    1
  2521  3361  3362    1
  2522  3361  3363    1
  2523  3361  3364    1
  2524  3365  3366    1
  2525  3365  3367    1
  2526  3365  3368    1
  2527  3369  3370    1
  2528  3369  3371    1
  2529  3369  3372    1
  2530  3373  3374    1
  2531  3373  3375    1
  2532  3373  3376    1
  2533  3377  3378    1
  2534  3377  3379    1
  2535  3377  3380    1
  2536  3381  3382    1
  2537  3381  3383    1
  2538  3381  3384    1
  2539  3385  3386    1
  2540  3385  3387    1
  2541  3385  3388    1
  2542  3389  3390    1
  2543  3389  3391    1
  2544  3389  3392    1
  2545  3393  3394    1
  2546  3393  3395    1
  2547  3393  3396    1
  2548  3397  3398    1
  2549  3397  3399    1
  2550  3397  3400    1
  2551  3401  3402    1
  2552  3401  3403    1
  2553  3401  3404    1
  2554  3405  3406    1
  2555  3405  3407    1
  2556  3405  3408    1
  2557  3409  3410    1
  2558  3409  3411    1
  2559  3409  3412    1
  2560  3413  3414    1
  2561  3413  3415    1
  2562  3413  3416    1
  2563  3417  3418    1
  2564  3417  3419    1
  2565  3417  3420    1
  2566  3421  3422    1
  2567  3421  3423    1
  2568  3421  3424    1
  2569  3425  3426    1
  2570  3425  3427    1
  2571  3425  3428    1
  2572  3429  3430    1
  2573  3429  3431    1
  2574  3429  3432    1
  2575  3433  3434    1
  2576  3433  3435    1
  2577  3433  3436    1
  2578  3437  3438    1
  2579  3437  3439    1
  2580  3437  3440    1
  2581  3441  3442    1
  2582  3441  3443    1
  2583  3441  3444    1
  2584  3445  3446    1
  2585  3445  3447    1
  2586  3445  3448    1
  2587  3449  3450    1
  2588  3449  3451    1
  2589  3449  3452    1
  2590  3453  3454    1
  2591  3453  3455    1
  2592  3453  3456    1
  2593  3457  3458    1
  2594  3457  3459    1
  2595  3457  3460    1
  2596  3461  3462    1
  2597  3461  3463    1
  2598  3461  3464    1
  2599  3465  3466    1
  2600  3465  3467    1
  2601  3465  3468    1
  2602  3469  3470    1
  2603  3469  3471    1
  2604  3469  3472    1
  2605  3473  3474    1
  2606  3473  3475    1
  2607  3473  3476    1
  2608  3477  3478    1
  2609  3477  3479    1
  2610  3477  3480    1
  2611  3481  3482    1
  2612  3481  3483    1
  2613  3481  3484    1
  2614  3485  3486    1
  2615  3485  3487    1
  2616  3485  3488    1
  2617  3489  3490    1
  2618  3489  3491    1
  2619  3489  3492    1
  2620  3493  3494    1
  2621  3493  3495    1
  2622  3493  3496    1
  2623  3497  3498    1
  2624  3497  3499    1
  2625  3497  3500    1
  2626  3501  3502    1
  2627  3501  3503    1
  2628  3501  3504    1
  2629  3505  3506    1
  2630  3505  3507    1
  2631  3505  3508    1
  2632  3509  3510    1
  2633  3509  3511    1
  2634  3509  3512    1
  2635  3513  3514    1
  2636  3513  3515    1
  2637  3513  3516    1
  2638  3517  3518    1
  2639  3517  3519    1
  2640  3517  3520    1
  2641  3521  3522    1
  2642  3521  3523    1
  2643  3521  3524    1
  2644  3525  3526    1
  2645  3525  3527    1
  2646  3525  3528    1
  2647  3529  3530    1
  2648  3529  3531    1
  2649  3529  3532    1
  2650  3533  3534    1
  2651  3533  3535    1
  2652  3533  3536    1
  2653  3537  3538    1
  2654  3537  3539    1
  2655  3537  3540    1
  2656  3541  3542    1
  2657  3541  3543    1
  2658  3541  3544    1
  2659  3545  3546    1
  2660  3545  3547    1
  2661  3545  3548    1
  2662  3549  3550    1
  2663  3549  3551    1
  2664  3549  3552    1
  2665  3553  3554    1
  2666  3553  3555    1
  2667  3553  3556    1
  2668  3557  3558    1
  2669  3557  3559    1
  2670  3557  3560    1
  2671  3561  3562    1
  2672  3561  3563    1
  2673  3561  3564    1
  2674  3565  3566    1
  2675  3565  3567    1
  2676  3565  3568    1
  2677  3569  3570    1
  2678  3569  3571    1
  2679  3569  3572    1
  2680  3573  3574    1
  2681  3573  3575    1
  2682  3573  3576    1
  2683  3577  3578    1
  2684  3577  3579    1
  2685  3577  3580    1
  2686  3581  3582    1
  2687  3581  3583    1
  2688  3581  3584    1
  2689  3585  3586    1
  2690  3585  3587    1
  2691  3585  3588    1
  2692  3589  3590    1
  2693  3589  3591    1
  2694  3589  3592    1
  2695  3593  3594    1
  2696  3593  3595    1
  2697  3593  3596    1
  2698  3597  3598    1
  2699  3597  3599    1
  2700  3597  3600    1
  2701  3601  3602    1
  2702  3601  3603    1
  2703  3601  3604    1
  2704  3605  3606    1
  2705  3605  3607    1
  2706  3605  3608    1
  2707  3609  3610    1
  2708  3609  3611    1
  2709  3609  3612    1
  2710  3613  3614    1
  2711  3613  3615    1
  2712  3613  3616    1
  2713  3617  3618    1
  2714  3617  3619    1
  2715  3617  3620    1
  2716  3621  3622    1
  2717  3621  3623    1
  2718  3621  3624    1
  2719  3625  3626    1
  2720  3625  3627    1
  2721  3625  3628    1
  2722  3629  3630    1
  2723  3629  3631    1
  2724  3629  3632    1
  2725  3633  3634    1
  2726  3633  3635    1
  2727  3633  3636    1
  2728  3637  3638    1
  2729  3637  3639    1
  2730  3637  3640    1
  2731  3641  3642    1
  2732  3641  3643    1
  2733  3641  3644    1
  2734  3645  3646    1
  2735  3645  3647    1
  2736  3645  3648    1
  2737  3649  3650    1
  2738  3649  3651    1
  2739  3649  3652    1
  2740  3653  3654    1
  2741  3653  3655    1
  2742  3653  3656    1
  2743  3657  3658    1
  2744  3657  3659    1
  2745  3657  3660    1
  2746  3661  3662    1
  2747  3661  3663    1
  2748  3661  3664    1
  2749  3665  3666    1
  2750  3665  3667    1
  2751  3665  3668    1
  2752  3669  3670    1
  2753  3669  3671    1
  2754  3669  3672    1
  2755  3673  3674    1
  2756  3673  3675    1
  2757  3673  3676    1
  2758  3677  3678    1
  2759  3677  3679    1
  2760  3677  3680    1
  2761  3681  3682    1
  2762  3681  3683    1
  2763  3681  3684    1
  2764  3685  3686    1
  2765  3685  3687    1
  2766  3685  3688    1
  2767  3689  3690    1
  2768  3689  3691    1
  2769  3689  3692    1
  2770  3693  3694    1
  2771  3693  3695    1
  2772  3693  3696    1
  2773  3697  3698    1
  2774  3697  3699    1
  2775  3697  3700    1
  2776  3701  3702    1
  2777  3701  3703    1
  2778  3701  3704    1
  2779  3705  3706    1
  2780  3705  3707    1
  2781  3705  3708    1
  2782  3709  3710    1
  2783  3709  3711    1
  2784  3709  3712    1
  2785  3713  3714    1
  2786  3713  3715    1
  2787  3713  3716    1
  2788  3717  3718    1
  2789  3717  3719    1
  2790  3717  3720    1
  2791  3721  3722    1
  2792  3721  3723    1
  2793  3721  3724    1
  2794  3725  3726    1
  2795  3725  3727    1
  2796  3725  3728    1
  2797  3729  3730    1
  2798  3729  3731    1
  2799  3729  3732    1
  2800  3733  3734    1
  2801  3733  3735    1
  2802  3733  3736    1
  2803  3737  3738    1
  2804  3737  3739    1
  2805  3737  3740    1
  2806  3741  3742    1
  2807  3741  3743    1
  2808  3741  3744    1
  2809  3745  3746    1
  2810  3745  3747    1
  2811  3745  3748    1
  2812  3749  3750    1
  2813  3749  3751    1
  2814  3749  3752    1
  2815  3753  3754    1
  2816  3753  3755    1
  2817  3753  3756    1
  2818  3757  3758    1
  2819  3757  3759    1
  2820  3757  3760    1
  2821  3761  3762    1
  2822  3761  3763    1
  2823  3761  3764    1
  2824  3765  3766    1
  2825  3765  3767    1
  2826  3765  3768    1
  2827  3769  3770    1
  2828  3769  3771    1
  2829  3769  3772    1
  2830  3773  3774    1
  2831  3773  3775    1
  2832  3773  3776    1
  2833  3777  3778    1
  2834  3777  3779    1
  2835  3777  3780    1
  2836  3781  3782    1
  2837  3781  3783    1
  2838  3781  3784    1
  2839  3785  3786    1
  2840  3785  3787    1
  2841  3785  3788    1
  2842  3789  3790    1
  2843  3789  3791    1
  2844  3789  3792    1
  2845  3793  3794    1
  2846  3793  3795    1
  2847  3793  3796    1
  2848  3797  3798    1
  2849  3797  3799    1
  2850  3797  3800    1
  2851  3801  3802    1
  2852  3801  3803    1
  2853  3801  3804    1
  2854  3805  3806    1
  2855  3805  3807    1
  2856  3805  3808    1
  2857  3809  3810    1
  2858  3809  3811    1
  2859  3809  3812    1
  2860  3813  3814    1
  2861  3813  3815    1
  2862  3813  3816    1
  2863  3817  3818    1
  2864  3817  3819    1
  2865  3817  3820    1
  2866  3821  3822    1
  2867  3821  3823    1
  2868  3821  3824    1
  2869  3825  3826    1
  2870  3825  3827    1
  2871  3825  3828    1
  2872  3829  3830    1
  2873  3829  3831    1
  2874  3829  3832    1
  2875  3833  3834    1
  2876  3833  3835    1
  2877  3833  3836    1
  2878  3837  3838    1
  2879  3837  3839    1
  2880  3837  3840    1
  2881  3841  3842    1
  2882  3841  3843    1
  2883  3841  3844    1
  2884  3845  3846    1
  2885  3845  3847    1
  2886  3845  3848    1
  2887  3849  3850    1
  2888  3849  3851    1
  2889  3849  3852    1
  2890  3853  3854    1
  2891  3853  3855    1
  2892  3853  3856    1
  2893  3857  3858    1
  2894  3857  3859    1
  2895  3857  3860    1
  2896  3861  3862    1
  2897  3861  3863    1
  2898  3861  3864    1
  2899  3865  3866    1
  2900  3865  3867    1
  2901  3865  3868    1
  2902  3869  3870    1
  2903  3869  3871    1
  2904  3869  3872    1
  2905  3873  3874    1
  2906  3873  3875    1
  2907  3873  3876    1
  2908  3877  3878    1
  2909  3877  3879    1
  2910  3877  3880    1
  2911  3881  3882    1
  2912  3881  3883    1
  2913  3881  3884    1
  2914  3885  3886    1
  2915  3885  3887    1
  2916  3885  3888    1
  2917  3889  3890    1
  2918  3889  3891    1
  2919  3889  3892    1
  2920  3893  3894    1
  2921  3893  3895    1
  2922  3893  3896    1
  2923  3897  3898    1
  2924  3897  3899    1
  2925  3897  3900    1
  2926  3901  3902    1
  2927  3901  3903    1
  2928  3901  3904    1
  2929  3905  3906    1
  2930  3905  3907    1
  2931  3905  3908    1
  2932  3909  3910    1
  2933  3909  3911    1
  2934  3909  3912    1
  2935  3913  3914    1
  2936  3913  3915    1
  2937  3913  3916    1
  2938  3917  3918    1
  2939  3917  3919    1
  2940  3917  3920    1
  2941  3921  3922    1
  2942  3921  3923    1
  2943  3921  3924    1
  2944  3925  3926    1
  2945  3925  3927    1
  2946  3925  3928    1
  2947  3929  3930    1
  2948  3929  3931    1
  2949  3929  3932    1
  2950  3933  3934    1
  2951  3933  3935    1
  2952  3933  3936    1
  2953  3937  3938    1
  2954  3937  3939    1
  2955  3937  3940    1
  2956  3941  3942    1
  2957  3941  3943    1
  2958  3941  3944    1
  2959  3945  3946    1
  2960  3945  3947    1
  2961  3945  3948    1
  2962  3949  3950    1
  2963  3949  3951    1
  2964  3949  3952    1
  2965  3953  3954    1
  2966  3953  3955    1
  2967  3953  3956    1
  2968  3957  3958    1
  2969  3957  3959    1
  2970  3957  3960    1
  2971  3961  3962    1
  2972  3961  3963    1
  2973  3961  3964    1
  2974  3965  3966    1
  2975  3965  3967    1
  2976  3965  3968    1
  2977  3969  3970    1
  2978  3969  3971    1
  2979  3969  3972    1
  2980  3973  3974    1
  2981  3973  3975    1
  2982  3973  3976    1
  2983  3977  3978    1
  2984  3977  3979    1
  2985  3977  3980    1
  2986  3981  3982    1
  2987  3981  3983    1
  2988  3981  3984    1
  2989  3985  3986    1
  2990  3985  3987    1
  2991  3985  3988    1
  2992  3989  3990    1
  2993  3989  3991    1
  2994  3989  3992    1
  2995  3993  3994    1
  2996  3993  3995    1
  2997  3993  3996    1
  2998  3997  3998    1
  2999  3997  3999    1
  3000  3997  4000    1
  3001  4001  4002    1
  3002  4001  4003    1
  3003  4001  4004    1
  3004  4005  4006    1
  3005  4005  4007    1
  3006  4005  4008    1
  3007  4009  4010    1
  3008  4009  4011    1
  3009  4009  4012    1
  3010  4013  4014    1
  3011  4013  4015    1
  3012  4013  4016    1
  3013  4017  4018    1
  3014  4017  4019    1
  3015  4017  4020    1
  3016  4021  4022    1
  3017  4021  4023    1
  3018  4021  4024    1
  3019  4025  4026    1
  3020  4025  4027    1
  3021  4025  4028    1
  3022  4029  4030    1
  3023  4029  4031    1
  3024  4029  4032    1
  3025  4033  4034    1
  3026  4033  4035    1
  3027  4033  4036    1
  3028  4037  4038    1
  3029  4037  4039    1
  3030  4037  4040    1
  3031  4041  4042    1
  3032  4041  4043    1
  3033  4041  4044    1
  3034  4045  4046    1
  3035  4045  4047    1
  3036  4045  4048    1
  3037  4049  4050    1
  3038  4049  4051    1
  3039  4049  4052    1
  3040  4053  4054    1
  3041  4053  4055    1
  3042  4053  4056    1
  3043  4057  4058    1
  3044  4057  4059    1
  3045  4057  4060    1
  3046  4061  4062    1
  3047  4061  4063    1
  3048  4061  4064    1
  3049  4065  4066    1
  3050  4065  4067    1
  3051  4065  4068    1
  3052  4069  4070    1
  3053  4069  4071    1
  3054  4069  4072    1
  3055  4073  4074    1
  3056  4073  4075    1
  3057  4073  4076    1
  3058  4077  4078    1
  3059  4077  4079    1
  3060  4077  4080    1
  3061  4081  4082    1
  3062  4081  4083    1
  3063  4081  4084    1
  3064  4085  4086    1
  3065  4085  4087    1
  3066  4085  4088    1
  3067  4089  4090    1
  3068  4089  4091    1
  3069  4089  4092    1
  3070  4093  4094    1
  3071  4093  4095    1
  3072  4093  4096    1
  3073  4097  4098    1
  3074  4097  4099    1
  3075  4097  4100    1
  3076  4101  4102    1
  3077  4101  4103    1
  3078  4101  4104    1
  3079  4105  4106    1
  3080  4105  4107    1
  3081  4105  4108    1
  3082  4109  4110    1
  3083  4109  4111    1
  3084  4109  4112    1
  3085  4113  4114    1
  3086  4113  4115    1
  3087  4113  4116    1
  3088  4117  4118    1
  3089  4117  4119    1
  3090  4117  4120    1
  3091  4121  4122    1
  3092  4121  4123    1
  3093  4121  4124    1
  3094  4125  4126    1
  3095  4125  4127    1
  3096  4125  4128    1
  3097  4129  4130    1
  3098  4129  4131    1
  3099  4129  4132    1
  3100  4133  4134    1
  3101  4133  4135    1
  3102  4133  4136    1
  3103  4137  4138    1
  3104  4137  4139    1
  3105  4137  4140    1
  3106  4141  4142    1
  3107  4141  4143    1
  3108  4141  4144    1
  3109  4145  4146    1
  3110  4145  4147    1
  3111  4145  4148    1
  3112  4149  4150    1
  3113  4149  4151    1
  3114  4149  4152    1
  3115  4153  4154    1
  3116  4153  4155    1
  3117  4153  4156    1
  3118  4157  4158    1
  3119  4157  4159    1
  3120  4157  4160    1
  3121  4161  4162    1
  3122  4161  4163    1
  3123  4161  4164    1
  3124  4165  4166    1
  3125  4165  4167    1
  3126  4165  4168    1
  3127  4169  4170    1
  3128  4169  4171    1
  3129  4169  4172    1
  3130  4173  4174    1
  3131  4173  4175    1
  3132  4173  4176    1
  3133  4177  4178    1
  3134  4177  4179    1
  3135  4177  4180    1
  3136  4181  4182    1
  3137  4181  4183    1
  3138  4181  4184    1
  3139  4185  4186    1
  3140  4185  4187    1
  3141  4185  4188    1
  3142  4189  4190    1
  3143  4189  4191    1
  3144  4189  4192    1
  3145  4193  4194    1
  3146  4193  4195    1
  3147  4193  4196    1
  3148  4197  4198    1
  3149  4197  4199    1
  3150  4197  4200    1
  3151  4201  4202    1
  3152  4201  4203    1
  3153  4201  4204    1
  3154  4205  4206    1
  3155  4205  4207    1
  3156  4205  4208    1
  3157  4209  4210    1
  3158  4209  4211    1
  3159  4209  4212    1
  3160  4213  4214    1
  3161  4213  4215    1
  3162  4213  4216    1
  3163  4217  4218    1
  3164  4217  4219    1
  3165  4217  4220    1
  3166  4221  4222    1
  3167  4221  4223    1
  3168  4221  4224    1
  3169  4225  4226    1
  3170  4225  4227    1
  3171  4225  4228    1
  3172  4229  4230    1
  3173  4229  4231    1
  3174  4229  4232    1
  3175  4233  4234    1
  3176  4233  4235    1
  3177  4233  4236    1
  3178  4237  4238    1
  3179  4237  4239    1
  3180  4237  4240    1
  3181  4241  4242    1
  3182  4241  4243    1
  3183  4241  4244    1
  3184  4245  4246    1
  3185  4245  4247    1
  3186  4245  4248    1
  3187  4249  4250    1
  3188  4249  4251    1
  3189  4249  4252    1
  3190  4253  4254    1
  3191  4253  4255    1
  3192  4253  4256    1
  3193  4257  4258    1
  3194  4257  4259    1
  3195  4257  4260    1
  3196  4261  4262    1
  3197  4261  4263    1
  3198  4261  4264    1
  3199  4265  4266    1
  3200  4265  4267    1
  3201  4265  4268    1
  3202  4269  4270    1
  3203  4269  4271    1
  3204  4269  4272    1
  3205  4273  4274    1
  3206  4273  4275    1
  3207  4273  4276    1
  3208  4277  4278    1
  3209  4277  4279    1
  3210  4277  4280    1
  3211  4281  4282    1
  3212  4281  4283    1
  3213  4281  4284    1
  3214  4285  4286    1
  3215  4285  4287    1
  3216  4285  4288    1
  3217  4289  4290    1
  3218  4289  4291    1
  3219  4289  4292    1
  3220  4293  4294    1
  3221  4293  4295    1
  3222  4293  4296    1
  3223  4297  4298    1
  3224  4297  4299    1
  3225  4297  4300    1
  3226  4301  4302    1
  3227  4301  4303    1
  3228  4301  4304    1
  3229  4305  4306    1
  3230  4305  4307    1
  3231  4305  4308    1
  3232  4309  4310    1
  3233  4309  4311    1
  3234  4309  4312    1
  3235  4313  4314    1
  3236  4313  4315    1
  3237  4313  4316    1
  3238  4317  4318    1
  3239  4317  4319    1
  3240  4317  4320    1
  3241  4321  4322    1
  3242  4321  4323    1
  3243  4321  4324    1
  3244  4325  4326    1
  3245  4325  4327    1
  3246  4325  4328    1
  3247  4329  4330    1
  3248  4329  4331    1
  3249  4329  4332    1
  3250  4333  4334    1
  3251  4333  4335    1
  3252  4333  4336    1
  3253  4337  4338    1
  3254  4337  4339    1
  3255  4337  4340    1
  3256  4341  4342    1
  3257  4341  4343    1
  3258  4341  4344    1
  3259  4345  4346    1
  3260  4345  4347    1
  3261  4345  4348    1
  3262  4349  4350    1
  3263  4349  4351    1
  3264  4349  4352    1
  3265  4353  4354    1
  3266  4353  4355    1
  3267  4353  4356    1
  3268  4357  4358    1
  3269  4357  4359    1
  3270  4357  4360    1
  3271  4361  4362    1
  3272  4361  4363    1
  3273  4361  4364    1
  3274  4365  4366    1
  3275  4365  4367    1
  3276  4365  4368    1
  3277  4369  4370    1
  3278  4369  4371    1
  3279  4369  4372    1
  3280  4373  4374    1
  3281  4373  4375    1
  3282  4373  4376    1
  3283  4377  4378    1
  3284  4377  4379    1
  3285  4377  4380    1
  3286  4381  4382    1
  3287  4381  4383    1
  3288  4381  4384    1
  3289  4385  4386    1
  3290  4385  4387    1
  3291  4385  4388    1
  3292  4389  4390    1
  3293  4389  4391    1
  3294  4389  4392    1
  3295  4393  4394    1
  3296  4393  4395    1
  3297  4393  4396    1
  3298  4397  4398    1
  3299  4397  4399    1
  3300  4397  4400    1
  3301  4401  4402    1
  3302  4401  4403    1
  3303  4401  4404    1
  3304  4405  4406    1
  3305  4405  4407    1
  3306  4405  4408    1
  3307  4409  4410    1
  3308  4409  4411    1
  3309  4409  4412    1
  3310  4413  4414    1
  3311  4413  4415    1
  3312  4413  4416    1
  3313  4417  4418    1
  3314  4417  4419    1
  3315  4417  4420    1
  3316  4421  4422    1
  3317  4421  4423    1
  3318  4421  4424    1
  3319  4425  4426    1
  3320  4425  4427    1
  3321  4425  4428    1
  3322  4429  4430    1
  3323  4429  4431    1
  3324  4429  4432    1
  3325  4433  4434    1
  3326  4433  4435    1
  3327  4433  4436    1
  3328  4437  4438    1
  3329  4437  4439    1
  3330  4437  4440    1
  3331  4441  4442    1
  3332  4441  4443    1
  3333  4441  4444    1
  3334  4445  4446    1
  3335  4445  4447    1
  3336  4445  4448    1
  3337  4449  4450    1
  3338  4449  4451    1
  3339  4449  4452    1
  3340  4453  4454    1
  3341  4453  4455    1
  3342  4453  4456    1
  3343  4457  4458    1
  3344  4457  4459    1
  3345  4457  4460    1
  3346  4461  4462    1
  3347  4461  4463    1
  3348  4461  4464    1
  3349  4465  4466    1
  3350  4465  4467    1
  3351  4465  4468    1
  3352  4469  4470    1
  3353  4469  4471    1
  3354  4469  4472    1
  3355  4473  4474    1
  3356  4473  4475    1
  3357  4473  4476    1
  3358  4477  4478    1
  3359  4477  4479    1
  3360  4477  4480    1
  3361  4481  4482    1
  3362  4481  4483    1
  3363  4481  4484    1
  3364  4485  4486    1
  3365  4485  4487    1
  3366  4485  4488    1
  3367  4489  4490    1
  3368  4489  4491    1
  3369  4489  4492    1
  3370  4493  4494    1
  3371  4493  4495    1
  3372  4493  4496    1
  3373  4497  4498    1
  3374  4497  4499    1
  3375  4497  4500    1
  3376  4501  4502    1
  3377  4501  4503    1
  3378  4501  4504    1
  3379  4505  4506    1
  3380  4505  4507    1
  3381  4505  4508    1
  3382  4509  4510    1
  3383  4509  4511    1
  3384  4509  4512    1
  3385  4513  4514    1
  3386  4513  4515    1
  3387  4513  4516    1
  3388  4517  4518    1
  3389  4517  4519    1
  3390  4517  4520    1
  3391  4521  4522    1
  3392  4521  4523    1
  3393  4521  4524    1
  3394  4525  4526    1
  3395  4525  4527    1
  3396  4525  4528    1
  3397  4529  4530    1
  3398  4529  4531    1
  3399  4529  4532    1
  3400  4533  4534    1
  3401  4533  4535    1
  3402  4533  4536    1
  3403  4537  4538    1
  3404  4537  4539    1
  3405  4537  4540    1
  3406  4541  4542    1
  3407  4541  4543    1
  3408  4541  4544    1
  3409  4545  4546    1
  3410  4545  4547    1
  3411  4545  4548    1
  3412  4549  4550    1
  3413  4549  4551    1
  3414  4549  4552    1
  3415  4553  4554    1
  3416  4553  4555    1
  3417  4553  4556    1
  3418  4557  4558    1
  3419  4557  4559    1
  3420  4557  4560    1
  3421  4561  4562    1
  3422  4561  4563    1
  3423  4561  4564    1
  3424  4565  4566    1
  3425  4565  4567    1
  3426  4565  4568    1
  3427  4569  4570    1
  3428  4569  4571    1
  3429  4569  4572    1
  3430  4573  4574    1
  3431  4573  4575    1
  3432  4573  4576    1
  3433  4577  4578    1
  3434  4577  4579    1
  3435  4577  4580    1
  3436  4581  4582    1
  3437  4581  4583    1
  3438  4581  4584    1
  3439  4585  4586    1
  3440  4585  4587    1
  3441  4585  4588    1
  3442  4589  4590    1
  3443  4589  4591    1
  3444  4589  4592    1
  3445  4593  4594    1
  3446  4593  4595    1
  3447  4593  4596    1
  3448  4597  4598    1
  3449  4597  4599    1
  3450  4597  4600    1
  3451  4601  4602    1
  3452  4601  4603    1
  3453  4601  4604    1
  3454  4605  4606    1
  3455  4605  4607    1
  3456  4605  4608    1
  3457  4609  4610    1
  3458  4609  4611    1
  3459  4609  4612    1
  3460  4613  4614    1
  3461  4613  4615    1
  3462  4613  4616    1
  3463  4617  4618    1
  3464  4617  4619    1
  3465  4617  4620    1
  3466  4621  4622    1
  3467  4621  4623    1
  3468  4621  4624    1
  3469  4625  4626    1
  3470  4625  4627    1
  3471  4625  4628    1
  3472  4629  4630    1
  3473  4629  4631    1
  3474  4629  4632    1
  3475  4633  4634    1
  3476  4633  4635    1
  3477  4633  4636    1
  3478  4637  4638    1
  3479  4637  4639    1
  3480  4637  4640    1
  3481  4641  4642    1
  3482  4641  4643    1
  3483  4641  4644    1
  3484  4645  4646    1
  3485  4645  4647    1
  3486  4645  4648    1
  3487  4649  4650    1
  3488  4649  4651    1
  3489  4649  4652    1
  3490  4653  4654    1
  3491  4653  4655    1
  3492  4653  4656    1
  3493  4657  4658    1
  3494  4657  4659    1
  3495  4657  4660    1
  3496  4661  4662    1
  3497  4661  4663    1
  3498  4661  4664    1
  3499  4665  4666    1
  3500  4665  4667    1
  3501  4665  4668    1
  3502  4669  4670    1
  3503  4669  4671    1
  3504  4669  4672    1
  3505  4673  4674    1
  3506  4673  4675    1
  3507  4673  4676    1
  3508  4677  4678    1
  3509  4677  4679    1
  3510  4677  4680    1
  3511  4681  4682    1
  3512  4681  4683    1
  3513  4681  4684    1
  3514  4685  4686    1
  3515  4685  4687    1
  3516  4685  4688    1
  3517  4689  4690    1
  3518  4689  4691    1
  3519  4689  4692    1
  3520  4693  4694    1
  3521  4693  4695    1
  3522  4693  4696    1
  3523  4697  4698    1
  3524  4697  4699    1
  3525  4697  4700    1
  3526  4701  4702    1
  3527  4701  4703    1
  3528  4701  4704    1
  3529  4705  4706    1
  3530  4705  4707    1
  3531  4705  4708    1
  3532  4709  4710    1
  3533  4709  4711    1
  3534  4709  4712    1
  3535  4713  4714    1
  3536  4713  4715    1
  3537  4713  4716    1
  3538  4717  4718    1
  3539  4717  4719    1
  3540  4717  4720    1
  3541  4721  4722    1
  3542  4721  4723    1
  3543  4721  4724    1
  3544  4725  4726    1
  3545  4725  4727    1
  3546  4725  4728    1
  3547  4729  4730    1
  3548  4729  4731    1
  3549  4729  4732    1
  3550  4733  4734    1
  3551  4733  4735    1
  3552  4733  4736    1
  3553  4737  4738    1
  3554  4737  4739    1
  3555  4737  4740    1
  3556  4741  4742    1
  3557  4741  4743    1
  3558  4741  4744    1
  3559  4745  4746    1
  3560  4745  4747    1
  3561  4745  4748    1
  3562  4749  4750    1
  3563  4749  4751    1
  3564  4749  4752    1
  3565  4753  4754    1
  3566  4753  4755    1
  3567  4753  4756    1
  3568  4757  4758    1
  3569  4757  4759    1
  3570  4757  4760    1
  3571  4761  4762    1
  3572  4761  4763    1
  3573  4761  4764    1
  3574  4765  4766    1
  3575  4765  4767    1
  3576  4765  4768    1
  3577  4769  4770    1
  3578  4769  4771    1
  3579  4769  4772    1
  3580  4773  4774    1
  3581  4773  4775    1
  3582  4773  4776    1
  3583  4777  4778    1
  3584  4777  4779    1
  3585  4777  4780    1
  3586  4781  4782    1
  3587  4781  4783    1
  3588  4781  4784    1
  3589  4785  4786    1
  3590  4785  4787    1
  3591  4785  4788    1
  3592  4789  4790    1
  3593  4789  4791    1
  3594  4789  4792    1
  3595  4793  4794    1
  3596  4793  4795    1
  3597  4793  4796    1
  3598  4797  4798    1
  3599  4797  4799    1
  3600  4797  4800    1
  3601  4801  4802    1
  3602  4801  4803    1
  3603  4801  4804    1
  3604  4805  4806    1
  3605  4805  4807    1
  3606  4805  4808    1
  3607  4809  4810    1
  3608  4809  4811    1
  3609  4809  4812    1
  3610  4813  4814    1
  3611  4813  4815    1
  3612  4813  4816    1
  3613  4817  4818    1
  3614  4817  4819    1
  3615  4817  4820    1
  3616  4821  4822    1
  3617  4821  4823    1
  3618  4821  4824    1
  3619  4825  4826    1
  3620  4825  4827    1
  3621  4825  4828    1
  3622  4829  4830    1
  3623  4829  4831    1
  3624  4829  4832    1
  3625  4833  4834    1
  3626  4833  4835    1
  3627  4833  4836    1
  3628  4837  4838    1
  3629  4837  4839    1
  3630  4837  4840    1
  3631  4841  4842    1
  3632  4841  4843    1
  3633  4841  4844    1
  3634  4845  4846    1
  3635  4845  4847    1
  3636  4845  4848    1
  3637  4849  4850    1
  3638  4849  4851    1
  3639  4849  4852    1
  3640  4853  4854    1
  3641  4853  4855    1
  3642  4853  4856    1
  3643  4857  4858    1
  3644  4857  4859    1
  3645  4857  4860    1
  3646  4861  4862    1
  3647  4861  4863    1
  3648  4861  4864    1
  3649  4865  4866    1
  3650  4865  4867    1
  3651  4865  4868    1
  3652  4869  4870    1
  3653  4869  4871    1
  3654  4869  4872    1
  3655  4873  4874    1
  3656  4873  4875    1
  3657  4873  4876    1
  3658  4877  4878    1
  3659  4877  4879    1
  3660  4877  4880    1
  3661  4881  4882    1
  3662  4881  4883    1
  3663  4881  4884    1
  3664  4885  4886    1
  3665  4885  4887    1
  3666  4885  4888    1
  3667  4889  4890    1
  3668  4889  4891    1
  3669  4889  4892    1
  3670  4893  4894    1
  3671  4893  4895    1
  3672  4893  4896    1
  3673  4897  4898    1
  3674  4897  4899    1
  3675  4897  4900    1
  3676  4901  4902    1
  3677  4901  4903    1
  3678  4901  4904    1
  3679  4905  4906    1
  3680  4905  4907    1
  3681  4905  4908    1
  3682  4909  4910    1
  3683  4909  4911    1
  3684  4909  4912    1
  3685  4913  4914    1
  3686  4913  4915    1
  3687  4913  4916    1
  3688  4917  4918    1
  3689  4917  4919    1
  3690  4917  4920    1
  3691  4921  4922    1
  3692  4921  4923    1
  3693  4921  4924    1
  3694  4925  4926    1
  3695  4925  4927    1
  3696  4925  4928    1
  3697  4929  4930    1
  3698  4929  4931    1
  3699  4929  4932    1
  3700  4933  4934    1
  3701  4933  4935    1
  3702  4933  4936    1
  3703  4937  4938    1
  3704  4937  4939    1
  3705  4937  4940    1
  3706  4941  4942    1
  3707  4941  4943    1
  3708  4941  4944    1
  3709  4945  4946    1
  3710  4945  4947    1
  3711  4945  4948    1
  3712  4949  4950    1
  3713  4949  4951    1
  3714  4949  4952    1
  3715  4953  4954    1
  3716  4953  4955    1
  3717  4953  4956    1
  3718  4957  4958    1
  3719  4957  4959    1
  3720  4957  4960    1
  3721  4961  4962    1
  3722  4961  4963    1
  3723  4961  4964    1
  3724  4965  4966    1
  3725  4965  4967    1
  3726  4965  4968    1
  3727  4969  4970    1
  3728  4969  4971    1
  3729  4969  4972    1
  3730  4973  4974    1
  3731  4973  4975    1
  3732  4973  4976    1
  3733  4977  4978    1
  3734  4977  4979    1
  3735  4977  4980    1
  3736  4981  4982    1
  3737  4981  4983    1
  3738  4981  4984    1
  3739  4985  4986    1
  3740  4985  4987    1
  3741  4985  4988    1
  3742  4989  4990    1
  3743  4989  4991    1
  3744  4989  4992    1
  3745  4993  4994    1
  3746  4993  4995    1
  3747  4993  4996    1
  3748  4997  4998    1
  3749  4997  4999    1
  3750  4997  5000    1
  3751  5001  5002    1
  3752  5001  5003    1
  3753  5001  5004    1
  3754  5005  5006    1
  3755  5005  5007    1
  3756  5005  5008    1
  3757  5009  5010    1
  3758  5009  5011    1
  3759  5009  5012    1
  3760  5013  5014    1
  3761  5013  5015    1
  3762  5013  5016    1
  3763  5017  5018    1
  3764  5017  5019    1
  3765  5017  5020    1
  3766  5021  5022    1
  3767  5021  5023    1
  3768  5021  5024    1
  3769  5025  5026    1
  3770  5025  5027    1
  3771  5025  5028    1
  3772  5029  5030    1
  3773  5029  5031    1
  3774  5029  5032    1
  3775  5033  5034    1
  3776  5033  5035    1
  3777  5033  5036    1
  3778  5037  5038    1
  3779  5037  5039    1
  3780  5037  5040    1
  3781  5041  5042    1
  3782  5041  5043    1
  3783  5041  5044    1
  3784  5045  5046    1
  3785  5045  5047    1
  3786  5045  5048    1
  3787  5049  5050    1
  3788  5049  5051    1
  3789  5049  5052    1
  3790  5053  5054    1
  3791  5053  5055    1
  3792  5053  5056    1
  3793  5057  5058    1
  3794  5057  5059    1
  3795  5057  5060    1
  3796  5061  5062    1
  3797  5061  5063    1
  3798  5061  5064    1
  3799  5065  5066    1
  3800  5065  5067    1
  3801  5065  5068    1
  3802  5069  5070    1
  3803  5069  5071    1
  3804  5069  5072    1
  3805  5073  5074    1
  3806  5073  5075    1
  3807  5073  5076    1
  3808  5077  5078    1
  3809  5077  5079    1
  3810  5077  5080    1
  3811  5081  5082    1
  3812  5081  5083    1
  3813  5081  5084    1
  3814  5085  5086    1
  3815  5085  5087    1
  3816  5085  5088    1
  3817  5089  5090    1
  3818  5089  5091    1
  3819  5089  5092    1
  3820  5093  5094    1
  3821  5093  5095    1
  3822  5093  5096    1
  3823  5097  5098    1
  3824  5097  5099    1
  3825  5097  5100    1
  3826  5101  5102    1
  3827  5101  5103    1
  3828  5101  5104    1
  3829  5105  5106    1
  3830  5105  5107    1
  3831  5105  5108    1
  3832  5109  5110    1
  3833  5109  5111    1
  3834  5109  5112    1
  3835  5113  5114    1
  3836  5113  5115    1
  3837  5113  5116    1
  3838  5117  5118    1
  3839  5117  5119    1
  3840  5117  5120    1
  3841  5121  5122    1
  3842  5121  5123    1
  3843  5121  5124    1
  3844  5125  5126    1
  3845  5125  5127    1
  3846  5125  5128    1
  3847  5129  5130    1
  3848  5129  5131    1
  3849  5129  5132    1
  3850  5133  5134    1
  3851  5133  5135    1
  3852  5133  5136    1
  3853  5137  5138    1
  3854  5137  5139    1
  3855  5137  5140    1
  3856  5141  5142    1
  3857  5141  5143    1
  3858  5141  5144    1
  3859  5145  5146    1
  3860  5145  5147    1
  3861  5145  5148    1
  3862  5149  5150    1
  3863  5149  5151    1
  3864  5149  5152    1
  3865  5153  5154    1
  3866  5153  5155    1
  3867  5153  5156    1
  3868  5157  5158    1
  3869  5157  5159    1
  3870  5157  5160    1
  3871  5161  5162    1
  3872  5161  5163    1
  3873  5161  5164    1
  3874  5165  5166    1
  3875  5165  5167    1
  3876  5165  5168    1
  3877  5169  5170    1
  3878  5169  5171    1
  3879  5169  5172    1
  3880  5173  5174    1
  3881  5173  5175    1
  3882  5173  5176    1
  3883  5177  5178    1
  3884  5177  5179    1
  3885  5177  5180    1
  3886  5181  5182    1
  3887  5181  5183    1
  3888  5181  5184    1
  3889  5185  5186    1
  3890  5185  5187    1
  3891  5185  5188    1
  3892  5189  5190    1
  3893  5189  5191    1
  3894  5189  5192    1
  3895  5193  5194    1
  3896  5193  5195    1
  3897  5193  5196    1
  3898  5197  5198    1
  3899  5197  5199    1
  3900  5197  5200    1
  3901  5201  5202    1
  3902  5201  5203    1
  3903  5201  5204    1
  3904  5205  5206    1
  3905  5205  5207    1
  3906  5205  5208    1
  3907  5209  5210    1
  3908  5209  5211    1
  3909  5209  5212    1
  3910  5213  5214    1
  3911  5213  5215    1
  3912  5213  5216    1
  3913  5217  5218    1
  3914  5217  5219    1
  3915  5217  5220    1
  3916  5221  5222    1
  3917  5221  5223    1
  3918  5221  5224    1
  3919  5225  5226    1
  3920  5225  5227    1
  3921  5225  5228    1
  3922  5229  5230    1
  3923  5229  5231    1
  3924  5229  5232    1
  3925  5233  5234    1
  3926  5233  5235    1
  3927  5233  5236    1
  3928  5237  5238    1
  3929  5237  5239    1
  3930  5237  5240    1
  3931  5241  5242    1
  3932  5241  5243    1
  3933  5241  5244    1
  3934  5245  5246    1
  3935  5245  5247    1
  3936  5245  5248    1
  3937  5249  5250    1
  3938  5249  5251    1
  3939  5249  5252    1
  3940  5253  5254    1
  3941  5253  5255    1
  3942  5253  5256    1
  3943  5257  5258    1
  3944  5257  5259    1
  3945  5257  5260    1
  3946  5261  5262    1
  3947  5261  5263    1
  3948  5261  5264    1
  3949  5265  5266    1
  3950  5265  5267    1
  3951  5265  5268    1
  3952  5269  5270    1
  3953  5269  5271    1
  3954  5269  5272    1
  3955  5273  5274    1
  3956  5273  5275    1
  3957  5273  5276    1
  3958  5277  5278    1
  3959  5277  5279    1
  3960  5277  5280    1
  3961  5281  5282    1
  3962  5281  5283    1
  3963  5281  5284    1
  3964  5285  5286    1
  3965  5285  5287    1
  3966  5285  5288    1
  3967  5289  5290    1
  3968  5289  5291    1
  3969  5289  5292    1
  3970  5293  5294    1
  3971  5293  5295    1
  3972  5293  5296    1
  3973  5297  5298    1
  3974  5297  5299    1
  3975  5297  5300    1
  3976  5301  5302    1
  3977  5301  5303    1
  3978  5301  5304    1
  3979  5305  5306    1
  3980  5305  5307    1
  3981  5305  5308    1
  3982  5309  5310    1
  3983  5309  5311    1
  3984  5309  5312    1
  3985  5313  5314    1
  3986  5313  5315    1
  3987  5313  5316    1
  3988  5317  5318    1
  3989  5317  5319    1
  3990  5317  5320    1
  3991  5321  5322    1
  3992  5321  5323    1
  3993  5321  5324    1
  3994  5325  5326    1
  3995  5325  5327    1
  3996  5325  5328    1
  3997  5329  5330    1
  3998  5329  5331    1
  3999  5329  5332    1
  4000  5333  5334    1
  4001  5333  5335    1
  4002  5333  5336    1
  4003  5337  5338    1
  4004  5337  5339    1
  4005  5337  5340    1
  4006  5341  5342    1
  4007  5341  5343    1
  4008  5341  5344    1
  4009  5345  5346    1
  4010  5345  5347    1
  4011  5345  5348    1
  4012  5349  5350    1
  4013  5349  5351    1
  4014  5349  5352    1
  4015  5353  5354    1
  4016  5353  5355    1
  4017  5353  5356    1
  4018  5357  5358    1
  4019  5357  5359    1
  4020  5357  5360    1
  4021  5361  5362    1
  4022  5361  5363    1
  4023  5361  5364    1
  4024  5365  5366    1
  4025  5365  5367    1
  4026  5365  5368    1
  4027  5369  5370    1
  4028  5369  5371    1
  4029  5369  5372    1
  4030  5373  5374    1
  4031  5373  5375    1
  4032  5373  5376    1
  4033  5377  5378    1
  4034  5377  5379    1
  4035  5377  5380    1
  4036  5381  5382    1
  4037  5381  5383    1
  4038  5381  5384    1
  4039  5385  5386    1
  4040  5385  5387    1
  4041  5385  5388    1
  4042  5389  5390    1
  4043  5389  5391    1
  4044  5389  5392    1
  4045  5393  5394    1
  4046  5393  5395    1
  4047  5393  5396    1
  4048  5397  5398    1
  4049  5397  5399    1
  4050  5397  5400    1
  4051  5401  5402    1
  4052  5401  5403    1
  4053  5401  5404    1
  4054  5405  5406    1
  4055  5405  5407    1
  4056  5405  5408    1
  4057  5409  5410    1
  4058  5409  5411    1
  4059  5409  5412    1
  4060  5413  5414    1
  4061  5413  5415    1
  4062  5413  5416    1
  4063  5417  5418    1
  4064  5417  5419    1
  4065  5417  5420    1
  4066  5421  5422    1
  4067  5421  5423    1
  4068  5421  5424    1
  4069  5425  5426    1
  4070  5425  5427    1
  4071  5425  5428    1
  4072  5429  5430    1
  4073  5429  5431    1
  4074  5429  5432    1
  4075  5433  5434    1
  4076  5433  5435    1
  4077  5433  5436    1
  4078  5437  5438    1
  4079  5437  5439    1
  4080  5437  5440    1
  4081  5441  5442    1
  4082  5441  5443    1
  4083  5441  5444    1
  4084  5445  5446    1
  4085  5445  5447    1
  4086  5445  5448    1
  4087  5449  5450    1
  4088  5449  5451    1
  4089  5449  5452    1
  4090  5453  5454    1
  4091  5453  5455    1
  4092  5453  5456    1
  4093  5457  5458    1
  4094  5457  5459    1
  4095  5457  5460    1
  4096  5461  5462    1
  4097  5461  5463    1
  4098  5461  5464    1
  4099  5465  5466    1
  4100  5465  5467    1
  4101  5465  5468    1
  4102  5469  5470    1
  4103  5469  5471    1
  4104  5469  5472    1
  4105  5473  5474    1
  4106  5473  5475    1
  4107  5473  5476    1
  4108  5477  5478    1
  4109  5477  5479    1
  4110  5477  5480    1
  4111  5481  5482    1
  4112  5481  5483    1
  4113  5481  5484    1
  4114  5485  5486    1
  4115  5485  5487    1
  4116  5485  5488    1
  4117  5489  5490    1
  4118  5489  5491    1
  4119  5489  5492    1
  4120  5493  5494    1
  4121  5493  5495    1
  4122  5493  5496    1
  4123  5497  5498    1
  4124  5497  5499    1
  4125  5497  5500    1
  4126  5501  5502    1
  4127  5501  5503    1
  4128  5501  5504    1
  4129  5505  5506    1
  4130  5505  5507    1
  4131  5505  5508    1
  4132  5509  5510    1
  4133  5509  5511    1
  4134  5509  5512    1
  4135  5513  5514    1
  4136  5513  5515    1
  4137  5513  5516    1
  4138  5517  5518    1
  4139  5517  5519    1
  4140  5517  5520    1
  4141  5521  5522    1
  4142  5521  5523    1
  4143  5521  5524    1
  4144  5525  5526    1
  4145  5525  5527    1
  4146  5525  5528    1
  4147  5529  5530    1
  4148  5529  5531    1
  4149  5529  5532    1
  4150  5533  5534    1
  4151  5533  5535    1
  4152  5533  5536    1
  4153  5537  5538    1
  4154  5537  5539    1
  4155  5537  5540    1
  4156  5541  5542    1
  4157  5541  5543    1
  4158  5541  5544    1
  4159  5545  5546    1
  4160  5545  5547    1
  4161  5545  5548    1
  4162  5549  5550    1
  4163  5549  5551    1
  4164  5549  5552    1
  4165  5553  5554    1
  4166  5553  5555    1
  4167  5553  5556    1
  4168  5557  5558    1
  4169  5557  5559    1
  4170  5557  5560    1
  4171  5561  5562    1
  4172  5561  5563    1
  4173  5561  5564    1
  4174  5565  5566    1
  4175  5565  5567    1
  4176  5565  5568    1
  4177  5569  5570    1
  4178  5569  5571    1
  4179  5569  5572    1
  4180  5573  5574    1
  4181  5573  5575    1
  4182  5573  5576    1
  4183  5577  5578    1
  4184  5577  5579    1
  4185  5577  5580    1
  4186  5581  5582    1
  4187  5581  5583    1
  4188  5581  5584    1
  4189  5585  5586    1
  4190  5585  5587    1
  4191  5585  5588    1
  4192  5589  5590    1
  4193  5589  5591    1
  4194  5589  5592    1
  4195  5593  5594    1
  4196  5593  5595    1
  4197  5593  5596    1
  4198  5597  5598    1
  4199  5597  5599    1
  4200  5597  5600    1
  4201  5601  5602    1
  4202  5601  5603    1
  4203  5601  5604    1
  4204  5605  5606    1
  4205  5605  5607    1
  4206  5605  5608    1
  4207  5609  5610    1
  4208  5609  5611    1
  4209  5609  5612    1
  4210  5613  5614    1
  4211  5613  5615    1
  4212  5613  5616    1
  4213  5617  5618    1
  4214  5617  5619    1
  4215  5617  5620    1
  4216  5621  5622    1
  4217  5621  5623    1
  4218  5621  5624    1
  4219  5625  5626    1
  4220  5625  5627    1
  4221  5625  5628    1
  4222  5629  5630    1
  4223  5629  5631    1
  4224  5629  5632    1
  4225  5633  5634    1
  4226  5633  5635    1
  4227  5633  5636    1
  4228  5637  5638    1
  4229  5637  5639    1
  4230  5637  5640    1
  4231  5641  5642    1
  4232  5641  5643    1
  4233  5641  5644    1
  4234  5645  5646    1
  4235  5645  5647    1
  4236  5645  5648    1
  4237  5649  5650    1
  4238  5649  5651    1
  4239  5649  5652    1
  4240  5653  5654    1
  4241  5653  5655    1
  4242  5653  5656    1
  4243  5657  5658    1
  4244  5657  5659    1
  4245  5657  5660    1
  4246  5661  5662    1
  4247  5661  5663    1
  4248  5661  5664    1
  4249  5665  5666    1
  4250  5665  5667    1
  4251  5665  5668    1
  4252  5669  5670    1
  4253  5669  5671    1
  4254  5669  5672    1
  4255  5673  5674    1
  4256  5673  5675    1
  4257  5673  5676    1
  4258  5677  5678    1
  4259  5677  5679    1
  4260  5677  5680    1
  4261  5681  5682    1
  4262  5681  5683    1
  4263  5681  5684    1
  4264  5685  5686    1
  4265  5685  5687    1
  4266  5685  5688    1
  4267  5689  5690    1
  4268  5689  5691    1
  4269  5689  5692    1
  4270  5693  5694    1
  4271  5693  5695    1
  4272  5693  5696    1
  4273  5697  5698    1
  4274  5697  5699    1
  4275  5697  5700    1
  4276  5701  5702    1
  4277  5701  5703    1
  4278  5701  5704    1
  4279  5705  5706    1
  4280  5705  5707    1
  4281  5705  5708    1
  4282  5709  5710    1
  4283  5709  5711    1
  4284  5709  5712    1
  4285  5713  5714    1
  4286  5713  5715    1
  4287  5713  5716    1
  4288  5717  5718    1
  4289  5717  5719    1
  4290  5717  5720    1
  4291  5721  5722    1
  4292  5721  5723    1
  4293  5721  5724    1
  4294  5725  5726    1
  4295  5725  5727    1
  4296  5725  5728    1
  4297  5729  5730    1
  4298  5729  5731    1
  4299  5729  5732    1
  4300  5733  5734    1
  4301  5733  5735    1
  4302  5733  5736    1
  4303  5737  5738    1
  4304  5737  5739    1
  4305  5737  5740    1
  4306  5741  5742    1
  4307  5741  5743    1
  4308  5741  5744    1
  4309  5745  5746    1
  4310  5745  5747    1
  4311  5745  5748    1
  4312  5749  5750    1
  4313  5749  5751    1
  4314  5749  5752    1
  4315  5753  5754    1
  4316  5753  5755    1
  4317  5753  5756    1
  4318  5757  5758    1
  4319  5757  5759    1
  4320  5757  5760    1
  4321  5761  5762    1
  4322  5761  5763    1
  4323  5761  5764    1
  4324  5765  5766    1
  4325  5765  5767    1
  4326  5765  5768    1
  4327  5769  5770    1
  4328  5769  5771    1
  4329  5769  5772    1
  4330  5773  5774    1
  4331  5773  5775    1
  4332  5773  5776    1
  4333  5777  5778    1
  4334  5777  5779    1
  4335  5777  5780    1
  4336  5781  5782    1
  4337  5781  5783    1
  4338  5781  5784    1
  4339  5785  5786    1
  4340  5785  5787    1
  4341  5785  5788    1
  4342  5789  5790    1
  4343  5789  5791    1
  4344  5789  5792    1
  4345  5793  5794    1
  4346  5793  5795    1
  4347  5793  5796    1
  4348  5797  5798    1
  4349  5797  5799    1
  4350  5797  5800    1
  4351  5801  5802    1
  4352  5801  5803    1
  4353  5801  5804    1
  4354  5805  5806    1
  4355  5805  5807    1
  4356  5805  5808    1
  4357  5809  5810    1
  4358  5809  5811    1
  4359  5809  5812    1
  4360  5813  5814    1
  4361  5813  5815    1
  4362  5813  5816    1
  4363  5817  5818    1
  4364  5817  5819    1
  4365  5817  5820    1
  4366  5821  5822    1
  4367  5821  5823    1
  4368  5821  5824    1
  4369  5825  5826    1
  4370  5825  5827    1
  4371  5825  5828    1
  4372  5829  5830    1
  4373  5829  5831    1
  4374  5829  5832    1
  4375  5833  5834    1
  4376  5833  5835    1
  4377  5833  5836    1
  4378  5837  5838    1
  4379  5837  5839    1
  4380  5837  5840    1
  4381  5841  5842    1
  4382  5841  5843    1
  4383  5841  5844    1
  4384  5845  5846    1
  4385  5845  5847    1
  4386  5845  5848    1
  4387  5849  5850    1
  4388  5849  5851    1
  4389  5849  5852    1
  4390  5853  5854    1
  4391  5853  5855    1
  4392  5853  5856    1
  4393  5857  5858    1
  4394  5857  5859    1
  4395  5857  5860    1
  4396  5861  5862    1
  4397  5861  5863    1
  4398  5861  5864    1
  4399  5865  5866    1
  4400  5865  5867    1
  4401  5865  5868    1
  4402  5869  5870    1
  4403  5869  5871    1
  4404  5869  5872    1
  4405  5873  5874    1
  4406  5873  5875    1
  4407  5873  5876    1
  4408  5877  5878    1
  4409  5877  5879    1
  4410  5877  5880    1
  4411  5881  5882    1
  4412  5881  5883    1
  4413  5881  5884    1
  4414  5885  5886    1
  4415  5885  5887    1
  4416  5885  5888    1
  4417  5889  5890    1
  4418  5889  5891    1
  4419  5889  5892    1
  4420  5893  5894    1
  4421  5893  5895    1
  4422  5893  5896    1
  4423  5897  5898    1
  4424  5897  5899    1
  4425  5897  5900    1
  4426  5901  5902    1
  4427  5901  5903    1
  4428  5901  5904    1
  4429  5905  5906    1
  4430  5905  5907    1
  4431  5905  5908    1
  4432  5909  5910    1
  4433  5909  5911    1
  4434  5909  5912    1
  4435  5913  5914    1
  4436  5913  5915    1
  4437  5913  5916    1
  4438  5917  5918    1
  4439  5917  5919    1
  4440  5917  5920    1
  4441  5921  5922    1
  4442  5921  5923    1
  4443  5921  5924    1
  4444  5925  5926    1
  4445  5925  5927    1
  4446  5925  5928    1
  4447  5929  5930    1
  4448  5929  5931    1
  4449  5929  5932    1
  4450  5933  5934    1
  4451  5933  5935    1
  4452  5933  5936    1
  4453  5937  5938    1
  4454  5937  5939    1
  4455  5937  5940    1
  4456  5941  5942    1
  4457  5941  5943    1
  4458  5941  5944    1
  4459  5945  5946    1
  4460  5945  5947    1
  4461  5945  5948    1
  4462  5949  5950    1
  4463  5949  5951    1
  4464  5949  5952    1
  4465  5953  5954    1
  4466  5953  5955    1
  4467  5953  5956    1
  4468  5957  5958    1
  4469  5957  5959    1
  4470  5957  5960    1
  4471  5961  5962    1
  4472  5961  5963    1
  4473  5961  5964    1
  4474  5965  5966    1
  4475  5965  5967    1
  4476  5965  5968    1
  4477  5969  5970    1
  4478  5969  5971    1
  4479  5969  5972    1
  4480  5973  5974    1
  4481  5973  5975    1
  4482  5973  5976    1
  4483  5977  5978    1
  4484  5977  5979    1
  4485  5977  5980    1
  4486  5981  5982    1
  4487  5981  5983    1
  4488  5981  5984    1
  4489  5985  5986    1
  4490  5985  5987    1
  4491  5985  5988    1
  4492  5989  5990    1
  4493  5989  5991    1
  4494  5989  5992    1
  4495  5993  5994    1
  4496  5993  5995    1
  4497  5993  5996    1
  4498  5997  5998    1
  4499  5997  5999    1
  4500  5997  6000    1
  4501  6001  6002    1
  4502  6001  6003    1
  4503  6001  6004    1
  4504  6005  6006    1
  4505  6005  6007    1
  4506  6005  6008    1
  4507  6009  6010    1
  4508  6009  6011    1
  4509  6009  6012    1
  4510  6013  6014    1
  4511  6013  6015    1
  4512  6013  6016    1
  4513  6017  6018    1
  4514  6017  6019    1
  4515  6017  6020    1
  4516  6021  6022    1
  4517  6021  6023    1
  4518  6021  6024    1
  4519  6025  6026    1
  4520  6025  6027    1
  4521  6025  6028    1
  4522  6029  6030    1
  4523  6029  6031    1
  4524  6029  6032    1
  4525  6033  6034    1
  4526  6033  6035    1
  4527  6033  6036    1
  4528  6037  6038    1
  4529  6037  6039    1
  4530  6037  6040    1
  4531  6041  6042    1
  4532  6041  6043    1
  4533  6041  6044    1
  4534  6045  6046    1
  4535  6045  6047    1
  4536  6045  6048    1
  4537  6049  6050    1
  4538  6049  6051    1
  4539  6049  6052    1
  4540  6053  6054    1
  4541  6053  6055    1
  4542  6053  6056    1
  4543  6057  6058    1
  4544  6057  6059    1
  4545  6057  6060    1
  4546  6061  6062    1
  4547  6061  6063    1
  4548  6061  6064    1
  4549  6065  6066    1
  4550  6065  6067    1
  4551  6065  6068    1
  4552  6069  6070    1
  4553  6069  6071    1
  4554  6069  6072    1
  4555  6073  6074    1
  4556  6073  6075    1
  4557  6073  6076    1
  4558  6077  6078    1
  4559  6077  6079    1
  4560  6077  6080    1
  4561  6081  6082    1
  4562  6081  6083    1
  4563  6081  6084    1
  4564  6085  6086    1
  4565  6085  6087    1
  4566  6085  6088    1
  4567  6089  6090    1
  4568  6089  6091    1
  4569  6089  6092    1
  4570  6093  6094    1
  4571  6093  6095    1
  4572  6093  6096    1
  4573  6097  6098    1
  4574  6097  6099    1
  4575  6097  6100    1
  4576  6101  6102    1
  4577  6101  6103    1
  4578  6101  6104    1
  4579  6105  6106    1
  4580  6105  6107    1
  4581  6105  6108    1
  4582  6109  6110    1
  4583  6109  6111    1
  4584  6109  6112    1
  4585  6113  6114    1
  4586  6113  6115    1
  4587  6113  6116    1
  4588  6117  6118    1
  4589  6117  6119    1
  4590  6117  6120    1
  4591  6121  6122    1
  4592  6121  6123    1
  4593  6121  6124    1
  4594  6125  6126    1
  4595  6125  6127    1
  4596  6125  6128    1
  4597  6129  6130    1
  4598  6129  6131    1
  4599  6129  6132    1
  4600  6133  6134    1
  4601  6133  6135    1
  4602  6133  6136    1
  4603  6137  6138    1
  4604  6137  6139    1
  4605  6137  6140    1
  4606  6141  6142    1
  4607  6141  6143    1
  4608  6141  6144    1
  4609  6145  6146    1
  4610  6145  6147    1
  4611  6145  6148    1
  4612  6149  6150    1
  4613  6149  6151    1
  4614  6149  6152    1
  4615  6153  6154    1
  4616  6153  6155    1
  4617  6153  6156    1
  4618  6157  6158    1
  4619  6157  6159    1
  4620  6157  6160    1
  4621  6161  6162    1
  4622  6161  6163    1
  4623  6161  6164    1
  4624  6165  6166    1
  4625  6165  6167    1
  4626  6165  6168    1
  4627  6169  6170    1
  4628  6169  6171    1
  4629  6169  6172    1
  4630  6173  6174    1
  4631  6173  6175    1
  4632  6173  6176    1
  4633  6177  6178    1
  4634  6177  6179    1
  4635  6177  6180    1
  4636  6181  6182    1
  4637  6181  6183    1
  4638  6181  6184    1
  4639  6185  6186    1
  4640  6185  6187    1
  4641  6185  6188    1
  4642  6189  6190    1
  4643  6189  6191    1
  4644  6189  6192    1
  4645  6193  6194    1
  4646  6193  6195    1
  4647  6193  6196    1
  4648  6197  6198    1
  4649  6197  6199    1
  4650  6197  6200    1
  4651  6201  6202    1
  4652  6201  6203    1
  4653  6201  6204    1
  4654  6205  6206    1
  4655  6205  6207    1
  4656  6205  6208    1
  4657  6209  6210    1
  4658  6209  6211    1
  4659  6209  6212    1
  4660  6213  6214    1
  4661  6213  6215    1
  4662  6213  6216    1
  4663  6217  6218    1
  4664  6217  6219    1
  4665  6217  6220    1
  4666  6221  6222    1
  4667  6221  6223    1
  4668  6221  6224    1
  4669  6225  6226    1
  4670  6225  6227    1
  4671  6225  6228    1
  4672  6229  6230    1
  4673  6229  6231    1
  4674  6229  6232    1
  4675  6233  6234    1
  4676  6233  6235    1
  4677  6233  6236    1
  4678  6237  6238    1
  4679  6237  6239    1
  4680  6237  6240    1
  4681  6241  6242    1
  4682  6241  6243    1
  4683  6241  6244    1
  4684  6245  6246    1
  4685  6245  6247    1
  4686  6245  6248    1
  4687  6249  6250    1
  4688  6249  6251    1
  4689  6249  6252    1
  4690  6253  6254    1
  4691  6253  6255    1
  4692  6253  6256    1
  4693  6257  6258    1
  4694  6257  6259    1
  4695  6257  6260    1
  4696  6261  6262    1
  4697  6261  6263    1
  4698  6261  6264    1
  4699  6265  6266    1
  4700  6265  6267    1
  4701  6265  6268    1
  4702  6269  6270    1
  4703  6269  6271    1
  4704  6269  6272    1
  4705  6273  6274    1
  4706  6273  6275    1
  4707  6273  6276    1
  4708  6277  6278    1
  4709  6277  6279    1
  4710  6277  6280    1
  4711  6281  6282    1
  4712  6281  6283    1
  4713  6281  6284    1
  4714  6285  6286    1
  4715  6285  6287    1
  4716  6285  6288    1
  4717  6289  6290    1
  4718  6289  6291    1
  4719  6289  6292    1
  4720  6293  6294    1
  4721  6293  6295    1
  4722  6293  6296    1
  4723  6297  6298    1
  4724  6297  6299    1
  4725  6297  6300    1
  4726  6301  6302    1
  4727  6301  6303    1
  4728  6301  6304    1
  4729  6305  6306    1
  4730  6305  6307    1
  4731  6305  6308    1
  4732  6309  6310    1
  4733  6309  6311    1
  4734  6309  6312    1
  4735  6313  6314    1
  4736  6313  6315    1
  4737  6313  6316    1
  4738  6317  6318    1
  4739  6317  6319    1
  4740  6317  6320    1
  4741  6321  6322    1
  4742  6321  6323    1
  4743  6321  6324    1
  4744  6325  6326    1
  4745  6325  6327    1
  4746  6325  6328    1
  4747  6329  6330    1
  4748  6329  6331    1
  4749  6329  6332    1
  4750  6333  6334    1
  4751  6333  6335    1
  4752  6333  6336    1
  4753  6337  6338    1
  4754  6337  6339    1
  4755  6337  6340    1
  4756  6341  6342    1
  4757  6341  6343    1
  4758  6341  6344    1
  4759  6345  6346    1
  4760  6345  6347    1
  4761  6345  6348    1
  4762  6349  6350    1
  4763  6349  6351    1
  4764  6349  6352    1
  4765  6353  6354    1
  4766  6353  6355    1
  4767  6353  6356    1
  4768  6357  6358    1
  4769  6357  6359    1
  4770  6357  6360    1
  4771  6361  6362    1
  4772  6361  6363    1
  4773  6361  6364    1
  4774  6365  6366    1
  4775  6365  6367    1
  4776  6365  6368    1
  4777  6369  6370    1
  4778  6369  6371    1
  4779  6369  6372    1
  4780  6373  6374    1
  4781  6373  6375    1
  4782  6373  6376    1
  4783  6377  6378    1
  4784  6377  6379    1
  4785  6377  6380    1
  4786  6381  6382    1
  4787  6381  6383    1
  4788  6381  6384    1
  4789  6385  6386    1
  4790  6385  6387    1
  4791  6385  6388    1
  4792  6389  6390    1
  4793  6389  6391    1
  4794  6389  6392    1
  4795  6393  6394    1
  4796  6393  6395    1
  4797  6393  6396    1
  4798  6397  6398    1
  4799  6397  6399    1
  4800  6397  6400    1
  4801  6401  6402    1
  4802  6401  6403    1
  4803  6401  6404    1
  4804  6405  6406    1
  4805  6405  6407    1
  4806  6405  6408    1
  4807  6409  6410    1
  4808  6409  6411    1
  4809  6409  6412    1
  4810  6413  6414    1
  4811  6413  6415    1
  4812  6413  6416    1
  4813  6417  6418    1
  4814  6417  6419    1
  4815  6417  6420    1
  4816  6421  6422    1
  4817  6421  6423    1
  4818  6421  6424    1
  4819  6425  6426    1
  4820  6425  6427    1
  4821  6425  6428    1
  4822  6429  6430    1
  4823  6429  6431    1
  4824  6429  6432    1
  4825  6433  6434    1
  4826  6433  6435    1
  4827  6433  6436    1
  4828  6437  6438    1
  4829  6437  6439    1
  4830  6437  6440    1
  4831  6441  6442    1
  4832  6441  6443    1
  4833  6441  6444    1
  4834  6445  6446    1
  4835  6445  6447    1
  4836  6445  6448    1
  4837  6449  6450    1
  4838  6449  6451    1
  4839  6449  6452    1
  4840  6453  6454    1
  4841  6453  6455    1
  4842  6453  6456    1
  4843  6457  6458    1
  4844  6457  6459    1
  4845  6457  6460    1
  4846  6461  6462    1
  4847  6461  6463    1
  4848  6461  6464    1
  4849  6465  6466    1
  4850  6465  6467    1
  4851  6465  6468    1
  4852  6469  6470    1
  4853  6469  6471    1
  4854  6469  6472    1
  4855  6473  6474    1
  4856  6473  6475    1
  4857  6473  6476    1
  4858  6477  6478    1
  4859  6477  6479    1
  4860  6477  6480    1
  4861  6481  6482    1
  4862  6481  6483    1
  4863  6481  6484    1
  4864  6485  6486    1
  4865  6485  6487    1
  4866  6485  6488    1
  4867  6489  6490    1
  4868  6489  6491    1
  4869  6489  6492    1
  4870  6493  6494    1
  4871  6493  6495    1
  4872  6493  6496    1
  4873  6497  6498    1
  4874  6497  6499    1
  4875  6497  6500    1
  4876  6501  6502    1
  4877  6501  6503    1
  4878  6501  6504    1
  4879  6505  6506    1
  4880  6505  6507    1
  4881  6505  6508    1
  4882  6509  6510    1
  4883  6509  6511    1
  4884  6509  6512    1
  4885  6513  6514    1
  4886  6513  6515    1
  4887  6513  6516    1
  4888  6517  6518    1
  4889  6517  6519    1
  4890  6517  6520    1
  4891  6521  6522    1
  4892  6521  6523    1
  4893  6521  6524    1
  4894  6525  6526    1
  4895  6525  6527    1
  4896  6525  6528    1
  4897  6529  6530    1
  4898  6529  6531    1
  4899  6529  6532    1
  4900  6533  6534    1
  4901  6533  6535    1
  4902  6533  6536    1
  4903  6537  6538    1
  4904  6537  6539    1
  4905  6537  6540    1
  4906  6541  6542    1
  4907  6541  6543    1
  4908  6541  6544    1
  4909  6545  6546    1
  4910  6545  6547    1
  4911  6545  6548    1
  4912  6549  6550    1
  4913  6549  6551    1
  4914  6549  6552    1
  4915  6553  6554    1
  4916  6553  6555    1
  4917  6553  6556    1
  4918  6557  6558    1
  4919  6557  6559    1
  4920  6557  6560    1
  4921  6561  6562    1
  4922  6561  6563    1
  4923  6561  6564    1
  4924  6565  6566    1
  4925  6565  6567    1
  4926  6565  6568    1
  4927  6569  6570    1
  4928  6569  6571    1
  4929  6569  6572    1
  4930  6573  6574    1
  4931  6573  6575    1
  4932  6573  6576    1
  4933  6577  6578    1
  4934  6577  6579    1
  4935  6577  6580    1
  4936  6581  6582    1
  4937  6581  6583    1
  4938  6581  6584    1
  4939  6585  6586    1
  4940  6585  6587    1
  4941  6585  6588    1
  4942  6589  6590    1
  4943  6589  6591    1
  4944  6589  6592    1
  4945  6593  6594    1
  4946  6593  6595    1
  4947  6593  6596    1
  4948  6597  6598    1
  4949  6597  6599    1
  4950  6597  6600    1
  4951  6601  6602    1
  4952  6601  6603    1
  4953  6601  6604    1
  4954  6605  6606    1
  4955  6605  6607    1
  4956  6605  6608    1
  4957  6609  6610    1
  4958  6609  6611    1
  4959  6609  6612    1
  4960  6613  6614    1
  4961  6613  6615    1
  4962  6613  6616    1
  4963  6617  6618    1
  4964  6617  6619    1
  4965  6617  6620    1
  4966  6621  6622    1
  4967  6621  6623    1
  4968  6621  6624    1
  4969  6625  6626    1
  4970  6625  6627    1
  4971  6625  6628    1
  4972  6629  6630    1
  4973  6629  6631    1
  4974  6629  6632    1
  4975  6633  6634    1
  4976  6633  6635    1
  4977  6633  6636    1
  4978  6637  6638    1
  4979  6637  6639    1
  4980  6637  6640    1
  4981  6641  6642    1
  4982  6641  6643    1
  4983  6641  6644    1
  4984  6645  6646    1
  4985  6645  6647    1
  4986  6645  6648    1
  4987  6649  6650    1
  4988  6649  6651    1
  4989  6649  6652    1
  4990  6653  6654    1
  4991  6653  6655    1
  4992  6653  6656    1
  4993  6657  6658    1
  4994  6657  6659    1
  4995  6657  6660    1
  4996  6661  6662    1
  4997  6661  6663    1
  4998  6661  6664    1
  4999  6665  6666    1
  5000  6665  6667    1
  5001  6665  6668    1
  5002  6669  6670    1
  5003  6669  6671    1
  5004  6669  6672    1
  5005  6673  6674    1
  5006  6673  6675    1
  5007  6673  6676    1
  5008  6677  6678    1
  5009  6677  6679    1
  5010  6677  6680    1
  5011  6681  6682    1
  5012  6681  6683    1
  5013  6681  6684    1
  5014  6685  6686    1
  5015  6685  6687    1
  5016  6685  6688    1
  5017  6689  6690    1
  5018  6689  6691    1
  5019  6689  6692    1
  5020  6693  6694    1
  5021  6693  6695    1
  5022  6693  6696    1
  5023  6697  6698    1
  5024  6697  6699    1
  5025  6697  6700    1
  5026  6701  6702    1
  5027  6701  6703    1
  5028  6701  6704    1
  5029  6705  6706    1
  5030  6705  6707    1
  5031  6705  6708    1
  5032  6709  6710    1
  5033  6709  6711    1
  5034  6709  6712    1
  5035  6713  6714    1
  5036  6713  6715    1
  5037  6713  6716    1
  5038  6717  6718    1
  5039  6717  6719    1
  5040  6717  6720    1
  5041  6721  6722    1
  5042  6721  6723    1
  5043  6721  6724    1
  5044  6725  6726    1
  5045  6725  6727    1
  5046  6725  6728    1
  5047  6729  6730    1
  5048  6729  6731    1
  5049  6729  6732    1
  5050  6733  6734    1
  5051  6733  6735    1
  5052  6733  6736    1
  5053  6737  6738    1
  5054  6737  6739    1
  5055  6737  6740    1
  5056  6741  6742    1
  5057  6741  6743    1
  5058  6741  6744    1
  5059  6745  6746    1
  5060  6745  6747    1
  5061  6745  6748    1
  5062  6749  6750    1
  5063  6749  6751    1
  5064  6749  6752    1
  5065  6753  6754    1
  5066  6753  6755    1
  5067  6753  6756    1
  5068  6757  6758    1
  5069  6757  6759    1
  5070  6757  6760    1
  5071  6761  6762    1
  5072  6761  6763    1
  5073  6761  6764    1
  5074  6765  6766    1
  5075  6765  6767    1
  5076  6765  6768    1
  5077  6769  6770    1
  5078  6769  6771    1
  5079  6769  6772    1
  5080  6773  6774    1
  5081  6773  6775    1
  5082  6773  6776    1
  5083  6777  6778    1
  5084  6777  6779    1
  5085  6777  6780    1
  5086  6781  6782    1
  5087  6781  6783    1
  5088  6781  6784    1
  5089  6785  6786    1
  5090  6785  6787    1
  5091  6785  6788    1
  5092  6789  6790    1
  5093  6789  6791    1
  5094  6789  6792    1
  5095  6793  6794    1
  5096  6793  6795    1
  5097  6793  6796    1
  5098  6797  6798    1
  5099  6797  6799    1
  5100  6797  6800    1
  5101  6801  6802    1
  5102  6801  6803    1
  5103  6801  6804    1
  5104  6805  6806    1
  5105  6805  6807    1
  5106  6805  6808    1
  5107  6809  6810    1
  5108  6809  6811    1
  5109  6809  6812    1
  5110  6813  6814    1
  5111  6813  6815    1
  5112  6813  6816    1
  5113  6817  6818    1
  5114  6817  6819    1
  5115  6817  6820    1
  5116  6821  6822    1
  5117  6821  6823    1
  5118  6821  6824    1
  5119  6825  6826    1
  5120  6825  6827    1
  5121  6825  6828    1
  5122  6829  6830    1
  5123  6829  6831    1
  5124  6829  6832    1
  5125  6833  6834    1
  5126  6833  6835    1
  5127  6833  6836    1
  5128  6837  6838    1
  5129  6837  6839    1
  5130  6837  6840    1
  5131  6841  6842    1
  5132  6841  6843    1
  5133  6841  6844    1
  5134  6845  6846    1
  5135  6845  6847    1
  5136  6845  6848    1
  5137  6849  6850    1
  5138  6849  6851    1
  5139  6849  6852    1
  5140  6853  6854    1
  5141  6853  6855    1
  5142  6853  6856    1
  5143  6857  6858    1
  5144  6857  6859    1
  5145  6857  6860    1
  5146  6861  6862    1
  5147  6861  6863    1
  5148  6861  6864    1
  5149  6865  6866    1
  5150  6865  6867    1
  5151  6865  6868    1
  5152  6869  6870    1
  5153  6869  6871    1
  5154  6869  6872    1
  5155  6873  6874    1
  5156  6873  6875    1
  5157  6873  6876    1
  5158  6877  6878    1
  5159  6877  6879    1
  5160  6877  6880    1
  5161  6881  6882    1
  5162  6881  6883    1
  5163  6881  6884    1
  5164  6885  6886    1
  5165  6885  6887    1
  5166  6885  6888    1
  5167  6889  6890    1
  5168  6889  6891    1
  5169  6889  6892    1
  5170  6893  6894    1
  5171  6893  6895    1
  5172  6893  6896    1
  5173  6897  6898    1
  5174  6897  6899    1
  5175  6897  6900    1
  5176  6901  6902    1
  5177  6901  6903    1
  5178  6901  6904    1
  5179  6905  6906    1
  5180  6905  6907    1
  5181  6905  6908    1
  5182  6909  6910    1
  5183  6909  6911    1
  5184  6909  6912    1
  5185  6913  6914    1
  5186  6913  6915    1
  5187  6913  6916    1
  5188  6917  6918    1
  5189  6917  6919    1
  5190  6917  6920    1
  5191  6921  6922    1
  5192  6921  6923    1
  5193  6921  6924    1
  5194  6925  6926    1
  5195  6925  6927    1
  5196  6925  6928    1
  5197  6929  6930    1
  5198  6929  6931    1
  5199  6929  6932    1
  5200  6933  6934    1
  5201  6933  6935    1
  5202  6933  6936    1
  5203  6937  6938    1
  5204  6937  6939    1
  5205  6937  6940    1
  5206  6941  6942    1
  5207  6941  6943    1
  5208  6941  6944    1
  5209  6945  6946    1
  5210  6945  6947    1
  5211  6945  6948    1
  5212  6949  6950    1
  5213  6949  6951    1
  5214  6949  6952    1
  5215  6953  6954    1
  5216  6953  6955    1
  5217  6953  6956    1
  5218  6957  6958    1
  5219  6957  6959    1
  5220  6957  6960    1
  5221  6961  6962    1
  5222  6961  6963    1
  5223  6961  6964    1
  5224  6965  6966    1
  5225  6965  6967    1
  5226  6965  6968    1
  5227  6969  6970    1
  5228  6969  6971    1
  5229  6969  6972    1
  5230  6973  6974    1
  5231  6973  6975    1
  5232  6973  6976    1
  5233  6977  6978    1
  5234  6977  6979    1
  5235  6977  6980    1
  5236  6981  6982    1
  5237  6981  6983    1
  5238  6981  6984    1
  5239  6985  6986    1
  5240  6985  6987    1
  5241  6985  6988    1
  5242  6989  6990    1
  5243  6989  6991    1
  5244  6989  6992    1
  5245  6993  6994    1
  5246  6993  6995    1
  5247  6993  6996    1
  5248  6997  6998    1
  5249  6997  6999    1
  5250  6997  7000    1
  5251  7001  7002    1
  5252  7001  7003    1
  5253  7001  7004    1
  5254  7005  7006    1
  5255  7005  7007    1
  5256  7005  7008    1
  5257  7009  7010    1
  5258  7009  7011    1
  5259  7009  7012    1
  5260  7013  7014    1
  5261  7013  7015    1
  5262  7013  7016    1
  5263  7017  7018    1
  5264  7017  7019    1
  5265  7017  7020    1
  5266  7021  7022    1
  5267  7021  7023    1
  5268  7021  7024    1
  5269  7025  7026    1
  5270  7025  7027    1
  5271  7025  7028    1
  5272  7029  7030    1
  5273  7029  7031    1
  5274  7029  7032    1
  5275  7033  7034    1
  5276  7033  7035    1
  5277  7033  7036    1
  5278  7037  7038    1
  5279  7037  7039    1
  5280  7037  7040    1
  5281  7041  7042    1
  5282  7041  7043    1
  5283  7041  7044    1
  5284  7045  7046    1
  5285  7045  7047    1
  5286  7045  7048    1
  5287  7049  7050    1
  5288  7049  7051    1
  5289  7049  7052    1
  5290  7053  7054    1
  5291  7053  7055    1
  5292  7053  7056    1
  5293  7057  7058    1
  5294  7057  7059    1
  5295  7057  7060    1
  5296  7061  7062    1
  5297  7061  7063    1
  5298  7061  7064    1
  5299  7065  7066    1
  5300  7065  7067    1
  5301  7065  7068    1
  5302  7069  7070    1
  5303  7069  7071    1
  5304  7069  7072    1
  5305  7073  7074    1
  5306  7073  7075    1
  5307  7073  7076    1
  5308  7077  7078    1
  5309  7077  7079    1
  5310  7077  7080    1
  5311  7081  7082    1
  5312  7081  7083    1
  5313  7081  7084    1
  5314  7085  7086    1
  5315  7085  7087    1
  5316  7085  7088    1
  5317  7089  7090    1
  5318  7089  7091    1
  5319  7089  7092    1
  5320  7093  7094    1
  5321  7093  7095    1
  5322  7093  7096    1
  5323  7097  7098    1
  5324  7097  7099    1
  5325  7097  7100    1
  5326  7101  7102    1
  5327  7101  7103    1
  5328  7101  7104    1
  5329  7105  7106    1
  5330  7105  7107    1
  5331  7105  7108    1
  5332  7109  7110    1
  5333  7109  7111    1
  5334  7109  7112    1
  5335  7113  7114    1
  5336  7113  7115    1
  5337  7113  7116    1
  5338  7117  7118    1
  5339  7117  7119    1
  5340  7117  7120    1
  5341  7121  7122    1
  5342  7121  7123    1
  5343  7121  7124    1
  5344  7125  7126    1
  5345  7125  7127    1
  5346  7125  7128    1
  5347  7129  7130    1
  5348  7129  7131    1
  5349  7129  7132    1
  5350  7133  7134    1
  5351  7133  7135    1
  5352  7133  7136    1
  5353  7137  7138    1
  5354  7137  7139    1
  5355  7137  7140    1
  5356  7141  7142    1
  5357  7141  7143    1
  5358  7141  7144    1
  5359  7145  7146    1
  5360  7145  7147    1
  5361  7145  7148    1
  5362  7149  7150    1
  5363  7149  7151    1
  5364  7149  7152    1
  5365  7153  7154    1
  5366  7153  7155    1
  5367  7153  7156    1
  5368  7157  7158    1
  5369  7157  7159    1
  5370  7157  7160    1
  5371  7161  7162    1
  5372  7161  7163    1
  5373  7161  7164    1
  5374  7165  7166    1
  5375  7165  7167    1
  5376  7165  7168    1
  5377  7169  7170    1
  5378  7169  7171    1
  5379  7169  7172    1
  5380  7173  7174    1
  5381  7173  7175    1
  5382  7173  7176    1
  5383  7177  7178    1
  5384  7177  7179    1
  5385  7177  7180    1
  5386  7181  7182    1
  5387  7181  7183    1
  5388  7181  7184    1
  5389  7185  7186    1
  5390  7185  7187    1
  5391  7185  7188    1
  5392  7189  7190    1
  5393  7189  7191    1
  5394  7189  7192    1
  5395  7193  7194    1
  5396  7193  7195    1
  5397  7193  7196    1
  5398  7197  7198    1
  5399  7197  7199    1
  5400  7197  7200    1
  5401  7201  7202    1
  5402  7201  7203    1
  5403  7201  7204    1
  5404  7205  7206    1
  5405  7205  7207    1
  5406  7205  7208    1
  5407  7209  7210    1
  5408  7209  7211    1
  5409  7209  7212    1
  5410  7213  7214    1
  5411  7213  7215    1
  5412  7213  7216    1
  5413  7217  7218    1
  5414  7217  7219    1
  5415  7217  7220    1
  5416  7221  7222    1
  5417  7221  7223    1
  5418  7221  7224    1
  5419  7225  7226    1
  5420  7225  7227    1
  5421  7225  7228    1
  5422  7229  7230    1
  5423  7229  7231    1
  5424  7229  7232    1
  5425  7233  7234    1
  5426  7233  7235    1
  5427  7233  7236    1
  5428  7237  7238    1
  5429  7237  7239    1
  5430  7237  7240    1
  5431  7241  7242    1
  5432  7241  7243    1
  5433  7241  7244    1
  5434  7245  7246    1
  5435  7245  7247    1
  5436  7245  7248    1
  5437  7249  7250    1
  5438  7249  7251    1
  5439  7249  7252    1
  5440  7253  7254    1
  5441  7253  7255    1
  5442  7253  7256    1
  5443  7257  7258    1
  5444  7257  7259    1
  5445  7257  7260    1
  5446  7261  7262    1
  5447  7261  7263    1
  5448  7261  7264    1
  5449  7265  7266    1
  5450  7265  7267    1
  5451  7265  7268    1
  5452  7269  7270    1
  5453  7269  7271    1
  5454  7269  7272    1
  5455  7273  7274    1
  5456  7273  7275    1
  5457  7273  7276    1
  5458  7277  7278    1
  5459  7277  7279    1
  5460  7277  7280    1
  5461  7281  7282    1
  5462  7281  7283    1
  5463  7281  7284    1
  5464  7285  7286    1
  5465  7285  7287    1
  5466  7285  7288    1
  5467  7289  7290    1
  5468  7289  7291    1
  5469  7289  7292    1
  5470  7293  7294    1
  5471  7293  7295    1
  5472  7293  7296    1
  5473  7297  7298    1
  5474  7297  7299    1
  5475  7297  7300    1
  5476  7301  7302    1
  5477  7301  7303    1
  5478  7301  7304    1
  5479  7305  7306    1
  5480  7305  7307    1
  5481  7305  7308    1
  5482  7309  7310    1
  5483  7309  7311    1
  5484  7309  7312    1
  5485  7313  7314    1
  5486  7313  7315    1
  5487  7313  7316    1
  5488  7317  7318    1
  5489  7317  7319    1
  5490  7317  7320    1
  5491  7321  7322    1
  5492  7321  7323    1
  5493  7321  7324    1
  5494  7325  7326    1
  5495  7325  7327    1
  5496  7325  7328    1
  5497  7329  7330    1
  5498  7329  7331    1
  5499  7329  7332    1
  5500  7333  7334    1
  5501  7333  7335    1
  5502  7333  7336    1
  5503  7337  7338    1
  5504  7337  7339    1
  5505  7337  7340    1
  5506  7341  7342    1
  5507  7341  7343    1
  5508  7341  7344    1
  5509  7345  7346    1
  5510  7345  7347    1
  5511  7345  7348    1
  5512  7349  7350    1
  5513  7349  7351    1
  5514  7349  7352    1
  5515  7353  7354    1
  5516  7353  7355    1
  5517  7353  7356    1
  5518  7357  7358    1
  5519  7357  7359    1
  5520  7357  7360    1
  5521  7361  7362    1
  5522  7361  7363    1
  5523  7361  7364    1
  5524  7365  7366    1
  5525  7365  7367    1
  5526  7365  7368    1
  5527  7369  7370    1
  5528  7369  7371    1
  5529  7369  7372    1
  5530  7373  7374    1
  5531  7373  7375    1
  5532  7373  7376    1
  5533  7377  7378    1
  5534  7377  7379    1
  5535  7377  7380    1
  5536  7381  7382    1
  5537  7381  7383    1
  5538  7381  7384    1
  5539  7385  7386    1
  5540  7385  7387    1
  5541  7385  7388    1
  5542  7389  7390    1
  5543  7389  7391    1
  5544  7389  7392    1
  5545  7393  7394    1
  5546  7393  7395    1
  5547  7393  7396    1
  5548  7397  7398    1
  5549  7397  7399    1
  5550  7397  7400    1
  5551  7401  7402    1
  5552  7401  7403    1
  5553  7401  7404    1
  5554  7405  7406    1
  5555  7405  7407    1
  5556  7405  7408    1
  5557  7409  7410    1
  5558  7409  7411    1
  5559  7409  7412    1
  5560  7413  7414    1
  5561  7413  7415    1
  5562  7413  7416    1
  5563  7417  7418    1
  5564  7417  7419    1
  5565  7417  7420    1
  5566  7421  7422    1
  5567  7421  7423    1
  5568  7421  7424    1
  5569  7425  7426    1
  5570  7425  7427    1
  5571  7425  7428    1
  5572  7429  7430    1
  5573  7429  7431    1
  5574  7429  7432    1
  5575  7433  7434    1
  5576  7433  7435    1
  5577  7433  7436    1
  5578  7437  7438    1
  5579  7437  7439    1
  5580  7437  7440    1
  5581  7441  7442    1
  5582  7441  7443    1
  5583  7441  7444    1
  5584  7445  7446    1
  5585  7445  7447    1
  5586  7445  7448    1
  5587  7449  7450    1
  5588  7449  7451    1
  5589  7449  7452    1
  5590  7453  7454    1
  5591  7453  7455    1
  5592  7453  7456    1
  5593  7457  7458    1
  5594  7457  7459    1
  5595  7457  7460    1
  5596  7461  7462    1
  5597  7461  7463    1
  5598  7461  7464    1
  5599  7465  7466    1
  5600  7465  7467    1
  5601  7465  7468    1
  5602  7469  7470    1
  5603  7469  7471    1
  5604  7469  7472    1
  5605  7473  7474    1
  5606  7473  7475    1
  5607  7473  7476    1
  5608  7477  7478    1
  5609  7477  7479    1
  5610  7477  7480    1
  5611  7481  7482    1
  5612  7481  7483    1
  5613  7481  7484    1
  5614  7485  7486    1
  5615  7485  7487    1
  5616  7485  7488    1
  5617  7489  7490    1
  5618  7489  7491    1
  5619  7489  7492    1
  5620  7493  7494    1
  5621  7493  7495    1
  5622  7493  7496    1
  5623  7497  7498    1
  5624  7497  7499    1
  5625  7497  7500    1
  5626  7501  7502    1
  5627  7501  7503    1
  5628  7501  7504    1
  5629  7505  7506    1
  5630  7505  7507    1
  5631  7505  7508    1
  5632  7509  7510    1
  5633  7509  7511    1
  5634  7509  7512    1
  5635  7513  7514    1
  5636  7513  7515    1
  5637  7513  7516    1
  5638  7517  7518    1
  5639  7517  7519    1
  5640  7517  7520    1
  5641  7521  7522    1
  5642  7521  7523    1
  5643  7521  7524    1
  5644  7525  7526    1
  5645  7525  7527    1
  5646  7525  7528    1
  5647  7529  7530    1
  5648  7529  7531    1
  5649  7529  7532    1
  5650  7533  7534    1
  5651  7533  7535    1
  5652  7533  7536    1
  5653  7537  7538    1
  5654  7537  7539    1
  5655  7537  7540    1
  5656  7541  7542    1
  5657  7541  7543    1
  5658  7541  7544    1
  5659  7545  7546    1
  5660  7545  7547    1
  5661  7545  7548    1
  5662  7549  7550    1
  5663  7549  7551    1
  5664  7549  7552    1
  5665  7553  7554    1
  5666  7553  7555    1
  5667  7553  7556    1
  5668  7557  7558    1
  5669  7557  7559    1
  5670  7557  7560    1
  5671  7561  7562    1
  5672  7561  7563    1
  5673  7561  7564    1
  5674  7565  7566    1
  5675  7565  7567    1
  5676  7565  7568    1
  5677  7569  7570    1
  5678  7569  7571    1
  5679  7569  7572    1
  5680  7573  7574    1
  5681  7573  7575    1
  5682  7573  7576    1
  5683  7577  7578    1
  5684  7577  7579    1
  5685  7577  7580    1
  5686  7581  7582    1
  5687  7581  7583    1
  5688  7581  7584    1
  5689  7585  7586    1
  5690  7585  7587    1
  5691  7585  7588    1
  5692  7589  7590    1
  5693  7589  7591    1
  5694  7589  7592    1
  5695  7593  7594    1
  5696  7593  7595    1
  5697  7593  7596    1
  5698  7597  7598    1
  5699  7597  7599    1
  5700  7597  7600    1
  5701  7601  7602    1
  5702  7601  7603    1
  5703  7601  7604    1
  5704  7605  7606    1
  5705  7605  7607    1
  5706  7605  7608    1
  5707  7609  7610    1
  5708  7609  7611    1
  5709  7609  7612    1
  5710  7613  7614    1
  5711  7613  7615    1
  5712  7613  7616    1
  5713  7617  7618    1
  5714  7617  7619    1
  5715  7617  7620    1
  5716  7621  7622    1
  5717  7621  7623    1
  5718  7621  7624    1
  5719  7625  7626    1
  5720  7625  7627    1
  5721  7625  7628    1
  5722  7629  7630    1
  5723  7629  7631    1
  5724  7629  7632    1
  5725  7633  7634    1
  5726  7633  7635    1
  5727  7633  7636    1
  5728  7637  7638    1
  5729  7637  7639    1
  5730  7637  7640    1
  5731  7641  7642    1
  5732  7641  7643    1
  5733  7641  7644    1
  5734  7645  7646    1
  5735  7645  7647    1
  5736  7645  7648    1
  5737  7649  7650    1
  5738  7649  7651    1
  5739  7649  7652    1
  5740  7653  7654    1
  5741  7653  7655    1
  5742  7653  7656    1
  5743  7657  7658    1
  5744  7657  7659    1
  5745  7657  7660    1
  5746  7661  7662    1
  5747  7661  7663    1
  5748  7661  7664    1
  5749  7665  7666    1
  5750  7665  7667    1
  5751  7665  7668    1
  5752  7669  7670    1
  5753  7669  7671    1
  5754  7669  7672    1
  5755  7673  7674    1
  5756  7673  7675    1
  5757  7673  7676    1
  5758  7677  7678    1
  5759  7677  7679    1
  5760  7677  7680    1
  5761  7681  7682    1
  5762  7681  7683    1
  5763  7681  7684    1
  5764  7685  7686    1
  5765  7685  7687    1
  5766  7685  7688    1
  5767  7689  7690    1
  5768  7689  7691    1
  5769  7689  7692    1
  5770  7693  7694    1
  5771  7693  7695    1
  5772  7693  7696    1
  5773  7697  7698    1
  5774  7697  7699    1
  5775  7697  7700    1
  5776  7701  7702    1
  5777  7701  7703    1
  5778  7701  7704    1
  5779  7705  7706    1
  5780  7705  7707    1
  5781  7705  7708    1
  5782  7709  7710    1
  5783  7709  7711    1
  5784  7709  7712    1
  5785  7713  7714    1
  5786  7713  7715    1
  5787  7713  7716    1
  5788  7717  7718    1
  5789  7717  7719    1
  5790  7717  7720    1
  5791  7721  7722    1
  5792  7721  7723    1
  5793  7721  7724    1
  5794  7725  7726    1
  5795  7725  7727    1
  5796  7725  7728    1
  5797  7729  7730    1
  5798  7729  7731    1
  5799  7729  7732    1
  5800  7733  7734    1
  5801  7733  7735    1
  5802  7733  7736    1
  5803  7737  7738    1
  5804  7737  7739    1
  5805  7737  7740    1
  5806  7741  7742    1
  5807  7741  7743    1
  5808  7741  7744    1
  5809  7745  7746    1
  5810  7745  7747    1
  5811  7745  7748    1
  5812  7749  7750    1
  5813  7749  7751    1
  5814  7749  7752    1
  5815  7753  7754    1
  5816  7753  7755    1
  5817  7753  7756    1
  5818  7757  7758    1
  5819  7757  7759    1
  5820  7757  7760    1
  5821  7761  7762    1
  5822  7761  7763    1
  5823  7761  7764    1
  5824  7765  7766    1
  5825  7765  7767    1
  5826  7765  7768    1
  5827  7769  7770    1
  5828  7769  7771    1
  5829  7769  7772    1
  5830  7773  7774    1
  5831  7773  7775    1
  5832  7773  7776    1
  5833  7777  7778    1
  5834  7777  7779    1
  5835  7777  7780    1
  5836  7781  7782    1
  5837  7781  7783    1
  5838  7781  7784    1
  5839  7785  7786    1
  5840  7785  7787    1
  5841  7785  7788    1
  5842  7789  7790    1
  5843  7789  7791    1
  5844  7789  7792    1
  5845  7793  7794    1
  5846  7793  7795    1
  5847  7793  7796    1
  5848  7797  7798    1
  5849  7797  7799    1
  5850  7797  7800    1
  5851  7801  7802    1
  5852  7801  7803    1
  5853  7801  7804    1
  5854  7805  7806    1
  5855  7805  7807    1
  5856  7805  7808    1
  5857  7809  7810    1
  5858  7809  7811    1
  5859  7809  7812    1
  5860  7813  7814    1
  5861  7813  7815    1
  5862  7813  7816    1
  5863  7817  7818    1
  5864  7817  7819    1
  5865  7817  7820    1
  5866  7821  7822    1
  5867  7821  7823    1
  5868  7821  7824    1
  5869  7825  7826    1
  5870  7825  7827    1
  5871  7825  7828    1
  5872  7829  7830    1
  5873  7829  7831    1
  5874  7829  7832    1
  5875  7833  7834    1
  5876  7833  7835    1
  5877  7833  7836    1
  5878  7837  7838    1
  5879  7837  7839    1
  5880  7837  7840    1
  5881  7841  7842    1
  5882  7841  7843    1
  5883  7841  7844    1
  5884  7845  7846    1
  5885  7845  7847    1
  5886  7845  7848    1
  5887  7849  7850    1
  5888  7849  7851    1
  5889  7849  7852    1
  5890  7853  7854    1
  5891  7853  7855    1
  5892  7853  7856    1
  5893  7857  7858    1
  5894  7857  7859    1
  5895  7857  7860    1
  5896  7861  7862    1
  5897  7861  7863    1
  5898  7861  7864    1
  5899  7865  7866    1
  5900  7865  7867    1
  5901  7865  7868    1
  5902  7869  7870    1
  5903  7869  7871    1
  5904  7869  7872    1
  5905  7873  7874    1
  5906  7873  7875    1
  5907  7873  7876    1
  5908  7877  7878    1
  5909  7877  7879    1
  5910  7877  7880    1
  5911  7881  7882    1
  5912  7881  7883    1
  5913  7881  7884    1
  5914  7885  7886    1
  5915  7885  7887    1
  5916  7885  7888    1
  5917  7889  7890    1
  5918  7889  7891    1
  5919  7889  7892    1
  5920  7893  7894    1
  5921  7893  7895    1
  5922  7893  7896    1
  5923  7897  7898    1
  5924  7897  7899    1
  5925  7897  7900    1
  5926  7901  7902    1
  5927  7901  7903    1
  5928  7901  7904    1
  5929  7905  7906    1
  5930  7905  7907    1
  5931  7905  7908    1
  5932  7909  7910    1
  5933  7909  7911    1
  5934  7909  7912    1
  5935  7913  7914    1
  5936  7913  7915    1
  5937  7913  7916    1
  5938  7917  7918    1
  5939  7917  7919    1
  5940  7917  7920    1
  5941  7921  7922    1
  5942  7921  7923    1
  5943  7921  7924    1
  5944  7925  7926    1
  5945  7925  7927    1
  5946  7925  7928    1
  5947  7929  7930    1
  5948  7929  7931    1
  5949  7929  7932    1
  5950  7933  7934    1
  5951  7933  7935    1
  5952  7933  7936    1
  5953  7937  7938    1
  5954  7937  7939    1
  5955  7937  7940    1
  5956  7941  7942    1
  5957  7941  7943    1
  5958  7941  7944    1
  5959  7945  7946    1
  5960  7945  7947    1
  5961  7945  7948    1
  5962  7949  7950    1
  5963  7949  7951    1
  5964  7949  7952    1
  5965  7953  7954    1
  5966  7953  7955    1
  5967  7953  7956    1
  5968  7957  7958    1
  5969  7957  7959    1
  5970  7957  7960    1
  5971  7961  7962    1
  5972  7961  7963    1
  5973  7961  7964    1
  5974  7965  7966    1
  5975  7965  7967    1
  5976  7965  7968    1
  5977  7969  7970    1
  5978  7969  7971    1
  5979  7969  7972    1
  5980  7973  7974    1
  5981  7973  7975    1
  5982  7973  7976    1
  5983  7977  7978    1
  5984  7977  7979    1
  5985  7977  7980    1
  5986  7981  7982    1
  5987  7981  7983    1
  5988  7981  7984    1
  5989  7985  7986    1
  5990  7985  7987    1
  5991  7985  7988    1
  5992  7989  7990    1
  5993  7989  7991    1
  5994  7989  7992    1
  5995  7993  7994    1
  5996  7993  7995    1
  5997  7993  7996    1
  5998  7997  7998    1
  5999  7997  7999    1
  6000  7997  8000    1
  6001  8001  8002    1
  6002  8001  8003    1
  6003  8001  8004    1
  6004  8005  8006    1
  6005  8005  8007    1
  6006  8005  8008    1
  6007  8009  8010    1
  6008  8009  8011    1
  6009  8009  8012    1
  6010  8013  8014    1
  6011  8013  8015    1
  6012  8013  8016    1
  6013  8017  8018    1
  6014  8017  8019    1
  6015  8017  8020    1
  6016  8021  8022    1
  6017  8021  8023    1
  6018  8021  8024    1
  6019  8025  8026    1
  6020  8025  8027    1
  6021  8025  8028    1
  6022  8029  8030    1
  6023  8029  8031    1
  6024  8029  8032    1
  6025  8033  8034    1
  6026  8033  8035    1
  6027  8033  8036    1
  6028  8037  8038    1
  6029  8037  8039    1
  6030  8037  8040    1
  6031  8041  8042    1
  6032  8041  8043    1
  6033  8041  8044    1
  6034  8045  8046    1
  6035  8045  8047    1
  6036  8045  8048    1
  6037  8049  8050    1
  6038  8049  8051    1
  6039  8049  8052    1
  6040  8053  8054    1
  6041  8053  8055    1
  6042  8053  8056    1
  6043  8057  8058    1
  6044  8057  8059    1
  6045  8057  8060    1
  6046  8061  8062    1
  6047  8061  8063    1
  6048  8061  8064    1
  6049  8065  8066    1
  6050  8065  8067    1
  6051  8065  8068    1
  6052  8069  8070    1
  6053  8069  8071    1
  6054  8069  8072    1
  6055  8073  8074    1
  6056  8073  8075    1
  6057  8073  8076    1
  6058  8077  8078    1
  6059  8077  8079    1
  6060  8077  8080    1
  6061  8081  8082    1
  6062  8081  8083    1
  6063  8081  8084    1
  6064  8085  8086    1
  6065  8085  8087    1
  6066  8085  8088    1
  6067  8089  8090    1
  6068  8089  8091    1
  6069  8089  8092    1
  6070  8093  8094    1
  6071  8093  8095    1
  6072  8093  8096    1
  6073  8097  8098    1
  6074  8097  8099    1
  6075  8097  8100    1
  6076  8101  8102    1
  6077  8101  8103    1
  6078  8101  8104    1
  6079  8105  8106    1
  6080  8105  8107    1
  6081  8105  8108    1
  6082  8109  8110    1
  6083  8109  8111    1
  6084  8109  8112    1
  6085  8113  8114    1
  6086  8113  8115    1
  6087  8113  8116    1
  6088  8117  8118    1
  6089  8117  8119    1
  6090  8117  8120    1
  6091  8121  8122    1
  6092  8121  8123    1
  6093  8121  8124    1
  6094  8125  8126    1
  6095  8125  8127    1
  6096  8125  8128    1
  6097  8129  8130    1
  6098  8129  8131    1
  6099  8129  8132    1
  6100  8133  8134    1
  6101  8133  8135    1
  6102  8133  8136    1
  6103  8137  8138    1
  6104  8137  8139    1
  6105  8137  8140    1
  6106  8141  8142    1
  6107  8141  8143    1
  6108  8141  8144    1
  6109  8145  8146    1
  6110  8145  8147    1
  6111  8145  8148    1
  6112  8149  8150    1
  6113  8149  8151    1
  6114  8149  8152    1
  6115  8153  8154    1
  6116  8153  8155    1
  6117  8153  8156    1
  6118  8157  8158    1
  6119  8157  8159    1
  6120  8157  8160    1
  6121  8161  8162    1
  6122  8161  8163    1
  6123  8161  8164    1
  6124  8165  8166    1
  6125  8165  8167    1
  6126  8165  8168    1
  6127  8169  8170    1
  6128  8169  8171    1
  6129  8169  8172    1
  6130  8173  8174    1
  6131  8173  8175    1
  6132  8173  8176    1
  6133  8177  8178    1
  6134  8177  8179    1
  6135  8177  8180    1
  6136  8181  8182    1
  6137  8181  8183    1
  6138  8181  8184    1
  6139  8185  8186    1
  6140  8185  8187    1
  6141  8185  8188    1
  6142  8189  8190    1
  6143  8189  8191    1
  6144  8189  8192    1
  6145  8193  8194    1
  6146  8193  8195    1
  6147  8193  8196    1
  6148  8197  8198    1
  6149  8197  8199    1
  6150  8197  8200    1
  6151  8201  8202    1
  6152  8201  8203    1
  6153  8201  8204    1
  6154  8205  8206    1
  6155  8205  8207    1
  6156  8205  8208    1
  6157  8209  8210    1
  6158  8209  8211    1
  6159  8209  8212    1
  6160  8213  8214    1
  6161  8213  8215    1
  6162  8213  8216    1
  6163  8217  8218    1
  6164  8217  8219    1
  6165  8217  8220    1
  6166  8221  8222    1
  6167  8221  8223    1
  6168  8221  8224    1
  6169  8225  8226    1
  6170  8225  8227    1
  6171  8225  8228    1
  6172  8229  8230    1
  6173  8229  8231    1
  6174  8229  8232    1
  6175  8233  8234    1
  6176  8233  8235    1
  6177  8233  8236    1
  6178  8237  8238    1
  6179  8237  8239    1
  6180  8237  8240    1
  6181  8241  8242    1
  6182  8241  8243    1
  6183  8241  8244    1
  6184  8245  8246    1
  6185  8245  8247    1
  6186  8245  8248    1
  6187  8249  8250    1
  6188  8249  8251    1
  6189  8249  8252    1
  6190  8253  8254    1
  6191  8253  8255    1
  6192  8253  8256    1
  6193  8257  8258    1
  6194  8257  8259    1
  6195  8257  8260    1
  6196  8261  8262    1
  6197  8261  8263    1
  6198  8261  8264    1
  6199  8265  8266    1
  6200  8265  8267    1
  6201  8265  8268    1
  6202  8269  8270    1
  6203  8269  8271    1
  6204  8269  8272    1
  6205  8273  8274    1
  6206  8273  8275    1
  6207  8273  8276    1
  6208  8277  8278    1
  6209  8277  8279    1
  6210  8277  8280    1
  6211  8281  8282    1
  6212  8281  8283    1
  6213  8281  8284    1
  6214  8285  8286    1
  6215  8285  8287    1
  6216  8285  8288    1
  6217  8289  8290    1
  6218  8289  8291    1
  6219  8289  8292    1
  6220  8293  8294    1
  6221  8293  8295    1
  6222  8293  8296    1
  6223  8297  8298    1
  6224  8297  8299    1
  6225  8297  8300    1
  6226  8301  8302    1
  6227  8301  8303    1
  6228  8301  8304    1
  6229  8305  8306    1
  6230  8305  8307    1
  6231  8305  8308    1
  6232  8309  8310    1
  6233  8309  8311    1
  6234  8309  8312    1
  6235  8313  8314    1
  6236  8313  8315    1
  6237  8313  8316    1
  6238  8317  8318    1
  6239  8317  8319    1
  6240  8317  8320    1
  6241  8321  8322    1
  6242  8321  8323    1
  6243  8321  8324    1
  6244  8325  8326    1
  6245  8325  8327    1
  6246  8325  8328    1
  6247  8329  8330    1
  6248  8329  8331    1
  6249  8329  8332    1
  6250  8333  8334    1
  6251  8333  8335    1
  6252  8333  8336    1
  6253  8337  8338    1
  6254  8337  8339    1
  6255  8337  8340    1
  6256  8341  8342    1
  6257  8341  8343    1
  6258  8341  8344    1
  6259  8345  8346    1
  6260  8345  8347    1
  6261  8345  8348    1
  6262  8349  8350    1
  6263  8349  8351    1
  6264  8349  8352    1
  6265  8353  8354    1
  6266  8353  8355    1
  6267  8353  8356    1
  6268  8357  8358    1
  6269  8357  8359    1
  6270  8357  8360    1
  6271  8361  8362    1
  6272  8361  8363    1
  6273  8361  8364    1
  6274  8365  8366    1
  6275  8365  8367    1
  6276  8365  8368    1
  6277  8369  8370    1
  6278  8369  8371    1
  6279  8369  8372    1
  6280  8373  8374    1
  6281  8373  8375    1
  6282  8373  8376    1
  6283  8377  8378    1
  6284  8377  8379    1
  6285  8377  8380    1
  6286  8381  8382    1
  6287  8381  8383    1
  6288  8381  8384    1
  6289  8385  8386    1
  6290  8385  8387    1
  6291  8385  8388    1
  6292  8389  8390    1
  6293  8389  8391    1
  6294  8389  8392    1
  6295  8393  8394    1
  6296  8393  8395    1
  6297  8393  8396    1
  6298  8397  8398    1
  6299  8397  8399    1
  6300  8397  8400    1
  6301  8401  8402    1
  6302  8401  8403    1
  6303  8401  8404    1
  6304  8405  8406    1
  6305  8405  8407    1
  6306  8405  8408    1
  6307  8409  8410    1
  6308  8409  8411    1
  6309  8409  8412    1
  6310  8413  8414    1
  6311  8413  8415    1
  6312  8413  8416    1
  6313  8417  8418    1
  6314  8417  8419    1
  6315  8417  8420    1
  6316  8421  8422    1
  6317  8421  8423    1
  6318  8421  8424    1
  6319  8425  8426    1
  6320  8425  8427    1
  6321  8425  8428    1
  6322  8429  8430    1
  6323  8429  8431    1
  6324  8429  8432    1
  6325  8433  8434    1
  6326  8433  8435    1
  6327  8433  8436    1
  6328  8437  8438    1
  6329  8437  8439    1
  6330  8437  8440    1
  6331  8441  8442    1
  6332  8441  8443    1
  6333  8441  8444    1
  6334  8445  8446    1
  6335  8445  8447    1
  6336  8445  8448    1
  6337  8449  8450    1
  6338  8449  8451    1
  6339  8449  8452    1
  6340  8453  8454    1
  6341  8453  8455    1
  6342  8453  8456    1
  6343  8457  8458    1
  6344  8457  8459    1
  6345  8457  8460    1
  6346  8461  8462    1
  6347  8461  8463    1
  6348  8461  8464    1
  6349  8465  8466    1
  6350  8465  8467    1
  6351  8465  8468    1
  6352  8469  8470    1
  6353  8469  8471    1
  6354  8469  8472    1
  6355  8473  8474    1
  6356  8473  8475    1
  6357  8473  8476    1
  6358  8477  8478    1
  6359  8477  8479    1
  6360  8477  8480    1
  6361  8481  8482    1
  6362  8481  8483    1
  6363  8481  8484    1
  6364  8485  8486    1
  6365  8485  8487    1
  6366  8485  8488    1
  6367  8489  8490    1
  6368  8489  8491    1
  6369  8489  8492    1
  6370  8493  8494    1
  6371  8493  8495    1
  6372  8493  8496    1
  6373  8497  8498    1
  6374  8497  8499    1
  6375  8497  8500    1
  6376  8501  8502    1
  6377  8501  8503    1
  6378  8501  8504    1
  6379  8505  8506    1
  6380  8505  8507    1
  6381  8505  8508    1
  6382  8509  8510    1
  6383  8509  8511    1
  6384  8509  8512    1
  6385  8513  8514    1
  6386  8513  8515    1
  6387  8513  8516    1
  6388  8517  8518    1
  6389  8517  8519    1
  6390  8517  8520    1
  6391  8521  8522    1
  6392  8521  8523    1
  6393  8521  8524    1
  6394  8525  8526    1
  6395  8525  8527    1
  6396  8525  8528    1
  6397  8529  8530    1
  6398  8529  8531    1
  6399  8529  8532    1
  6400  8533  8534    1
  6401  8533  8535    1
  6402  8533  8536    1
  6403  8537  8538    1
  6404  8537  8539    1
  6405  8537  8540    1
  6406  8541  8542    1
  6407  8541  8543    1
  6408  8541  8544    1
  6409  8545  8546    1
  6410  8545  8547    1
  6411  8545  8548    1
  6412  8549  8550    1
  6413  8549  8551    1
  6414  8549  8552    1
  6415  8553  8554    1
  6416  8553  8555    1
  6417  8553  8556    1
  6418  8557  8558    1
  6419  8557  8559    1
  6420  8557  8560    1
  6421  8561  8562    1
  6422  8561  8563    1
  6423  8561  8564    1
  6424  8565  8566    1
  6425  8565  8567    1
  6426  8565  8568    1
  6427  8569  8570    1
  6428  8569  8571    1
  6429  8569  8572    1
  6430  8573  8574    1
  6431  8573  8575    1
  6432  8573  8576    1
  6433  8577  8578    1
  6434  8577  8579    1
  6435  8577  8580    1
  6436  8581  8582    1
  6437  8581  8583    1
  6438  8581  8584    1
  6439  8585  8586    1
  6440  8585  8587    1
  6441  8585  8588    1
  6442  8589  8590    1
  6443  8589  8591    1
  6444  8589  8592    1
  6445  8593  8594    1
  6446  8593  8595    1
  6447  8593  8596    1
  6448  8597  8598    1
  6449  8597  8599    1
  6450  8597  8600    1
  6451  8601  8602    1
  6452  8601  8603    1
  6453  8601  8604    1
  6454  8605  8606    1
  6455  8605  8607    1
  6456  8605  8608    1
  6457  8609  8610    1
  6458  8609  8611    1
  6459  8609  8612    1
  6460  8613  8614    1
  6461  8613  8615    1
  6462  8613  8616    1
  6463  8617  8618    1
  6464  8617  8619    1
  6465  8617  8620    1
  6466  8621  8622    1
  6467  8621  8623    1
  6468  8621  8624    1
  6469  8625  8626    1
  6470  8625  8627    1
  6471  8625  8628    1
  6472  8629  8630    1
  6473  8629  8631    1
  6474  8629  8632    1
  6475  8633  8634    1
  6476  8633  8635    1
  6477  8633  8636    1
  6478  8637  8638    1
  6479  8637  8639    1
  6480  8637  8640    1
  6481  8641  8642    1
  6482  8641  8643    1
  6483  8641  8644    1
  6484  8645  8646    1
  6485  8645  8647    1
  6486  8645  8648    1
  6487  8649  8650    1
  6488  8649  8651    1
  6489  8649  8652    1
  6490  8653  8654    1
  6491  8653  8655    1
  6492  8653  8656    1
  6493  8657  8658    1
  6494  8657  8659    1
  6495  8657  8660    1
  6496  8661  8662    1
  6497  8661  8663    1
  6498  8661  8664    1
  6499  8665  8666    1
  6500  8665  8667    1
  6501  8665  8668    1
  6502  8669  8670    1
  6503  8669  8671    1
  6504  8669  8672    1
  6505  8673  8674    1
  6506  8673  8675    1
  6507  8673  8676    1
  6508  8677  8678    1
  6509  8677  8679    1
  6510  8677  8680    1
  6511  8681  8682    1
  6512  8681  8683    1
  6513  8681  8684    1
  6514  8685  8686    1
  6515  8685  8687    1
  6516  8685  8688    1
  6517  8689  8690    1
  6518  8689  8691    1
  6519  8689  8692    1
  6520  8693  8694    1
  6521  8693  8695    1
  6522  8693  8696    1
  6523  8697  8698    1
  6524  8697  8699    1
  6525  8697  8700    1
  6526  8701  8702    1
  6527  8701  8703    1
  6528  8701  8704    1
  6529  8705  8706    1
  6530  8705  8707    1
  6531  8705  8708    1
  6532  8709  8710    1
  6533  8709  8711    1
  6534  8709  8712    1
  6535  8713  8714    1
  6536  8713  8715    1
  6537  8713  8716    1
  6538  8717  8718    1
  6539  8717  8719    1
  6540  8717  8720    1
  6541  8721  8722    1
  6542  8721  8723    1
  6543  8721  8724    1
  6544  8725  8726    1
  6545  8725  8727    1
  6546  8725  8728    1
  6547  8729  8730    1
  6548  8729  8731    1
  6549  8729  8732    1
  6550  8733  8734    1
  6551  8733  8735    1
  6552  8733  8736    1
  6553  8737  8738    1
  6554  8737  8739    1
  6555  8737  8740    1
  6556  8741  8742    1
  6557  8741  8743    1
  6558  8741  8744    1
  6559  8745  8746    1
  6560  8745  8747    1
  6561  8745  8748    1
  6562  8749  8750    1
  6563  8749  8751    1
  6564  8749  8752    1
  6565  8753  8754    1
  6566  8753  8755    1
  6567  8753  8756    1
  6568  8757  8758    1
  6569  8757  8759    1
  6570  8757  8760    1
  6571  8761  8762    1
  6572  8761  8763    1
  6573  8761  8764    1
  6574  8765  8766    1
  6575  8765  8767    1
  6576  8765  8768    1
  6577  8769  8770    1
  6578  8769  8771    1
  6579  8769  8772    1
  6580  8773  8774    1
  6581  8773  8775    1
  6582  8773  8776    1
  6583  8777  8778    1
  6584  8777  8779    1
  6585  8777  8780    1
  6586  8781  8782    1
  6587  8781  8783    1
  6588  8781  8784    1
  6589  8785  8786    1
  6590  8785  8787    1
  6591  8785  8788    1
  6592  8789  8790    1
  6593  8789  8791    1
  6594  8789  8792    1
  6595  8793  8794    1
  6596  8793  8795    1
  6597  8793  8796    1
  6598  8797  8798    1
  6599  8797  8799    1
  6600  8797  8800    1
  6601  8801  8802    1
  6602  8801  8803    1
  6603  8801  8804    1
  6604  8805  8806    1
  6605  8805  8807    1
  6606  8805  8808    1
  6607  8809  8810    1
  6608  8809  8811    1
  6609  8809  8812    1
  6610  8813  8814    1
  6611  8813  8815    1
  6612  8813  8816    1
  6613  8817  8818    1
  6614  8817  8819    1
  6615  8817  8820    1
  6616  8821  8822    1
  6617  8821  8823    1
  6618  8821  8824    1
  6619  8825  8826    1
  6620  8825  8827    1
  6621  8825  8828    1
  6622  8829  8830    1
  6623  8829  8831    1
  6624  8829  8832    1
  6625  8833  8834    1
  6626  8833  8835    1
  6627  8833  8836    1
  6628  8837  8838    1
  6629  8837  8839    1
  6630  8837  8840    1
  6631  8841  8842    1
  6632  8841  8843    1
  6633  8841  8844    1
  6634  8845  8846    1
  6635  8845  8847    1
  6636  8845  8848    1
  6637  8849  8850    1
  6638  8849  8851    1
  6639  8849  8852    1
  6640  8853  8854    1
  6641  8853  8855    1
  6642  8853  8856    1
  6643  8857  8858    1
  6644  8857  8859    1
  6645  8857  8860    1
  6646  8861  8862    1
  6647  8861  8863    1
  6648  8861  8864    1
  6649  8865  8866    1
  6650  8865  8867    1
  6651  8865  8868    1
  6652  8869  8870    1
  6653  8869  8871    1
  6654  8869  8872    1
  6655  8873  8874    1
  6656  8873  8875    1
  6657  8873  8876    1
  6658  8877  8878    1
  6659  8877  8879    1
  6660  8877  8880    1
  6661  8881  8882    1
  6662  8881  8883    1
  6663  8881  8884    1
  6664  8885  8886    1
  6665  8885  8887    1
  6666  8885  8888    1
  6667  8889  8890    1
  6668  8889  8891    1
  6669  8889  8892    1
  6670  8893  8894    1
  6671  8893  8895    1
  6672  8893  8896    1
  6673  8897  8898    1
  6674  8897  8899    1
  6675  8897  8900    1
  6676  8901  8902    1
  6677  8901  8903    1
  6678  8901  8904    1
  6679  8905  8906    1
  6680  8905  8907    1
  6681  8905  8908    1
  6682  8909  8910    1
  6683  8909  8911    1
  6684  8909  8912    1
  6685  8913  8914    1
  6686  8913  8915    1
  6687  8913  8916    1
  6688  8917  8918    1
  6689  8917  8919    1
  6690  8917  8920    1
  6691  8921  8922    1
  6692  8921  8923    1
  6693  8921  8924    1
  6694  8925  8926    1
  6695  8925  8927    1
  6696  8925  8928    1
  6697  8929  8930    1
  6698  8929  8931    1
  6699  8929  8932    1
  6700  8933  8934    1
  6701  8933  8935    1
  6702  8933  8936    1
  6703  8937  8938    1
  6704  8937  8939    1
  6705  8937  8940    1
  6706  8941  8942    1
  6707  8941  8943    1
  6708  8941  8944    1
  6709  8945  8946    1
  6710  8945  8947    1
  6711  8945  8948    1
  6712  8949  8950    1
  6713  8949  8951    1
  6714  8949  8952    1
  6715  8953  8954    1
  6716  8953  8955    1
  6717  8953  8956    1
  6718  8957  8958    1
  6719  8957  8959    1
  6720  8957  8960    1
  6721  8961  8962    1
  6722  8961  8963    1
  6723  8961  8964    1
  6724  8965  8966    1
  6725  8965  8967    1
  6726  8965  8968    1
  6727  8969  8970    1
  6728  8969  8971    1
  6729  8969  8972    1
  6730  8973  8974    1
  6731  8973  8975    1
  6732  8973  8976    1
  6733  8977  8978    1
  6734  8977  8979    1
  6735  8977  8980    1
  6736  8981  8982    1
  6737  8981  8983    1
  6738  8981  8984    1
  6739  8985  8986    1
  6740  8985  8987    1
  6741  8985  8988    1
  6742  8989  8990    1
  6743  8989  8991    1
  6744  8989  8992    1
  6745  8993  8994    1
  6746  8993  8995    1
  6747  8993  8996    1
  6748  8997  8998    1
  6749  8997  8999    1
  6750  8997  9000    1
  6751  9001  9002    1
  6752  9001  9003    1
  6753  9001  9004    1
  6754  9005  9006    1
  6755  9005  9007    1
  6756  9005  9008    1
  6757  9009  9010    1
  6758  9009  9011    1
  6759  9009  9012    1
  6760  9013  9014    1
  6761  9013  9015    1
  6762  9013  9016    1
  6763  9017  9018    1
  6764  9017  9019    1
  6765  9017  9020    1
  6766  9021  9022    1
  6767  9021  9023    1
  6768  9021  9024    1
  6769  9025  9026    1
  6770  9025  9027    1
  6771  9025  9028    1
  6772  9029  9030    1
  6773  9029  9031    1
  6774  9029  9032    1
  6775  9033  9034    1
  6776  9033  9035    1
  6777  9033  9036    1
  6778  9037  9038    1
  6779  9037  9039    1
  6780  9037  9040    1
  6781  9041  9042    1
  6782  9041  9043    1
  6783  9041  9044    1
  6784  9045  9046    1
  6785  9045  9047    1
  6786  9045  9048    1
  6787  9049  9050    1
  6788  9049  9051    1
  6789  9049  9052    1
  6790  9053  9054    1
  6791  9053  9055    1
  6792  9053  9056    1
  6793  9057  9058    1
  6794  9057  9059    1
  6795  9057  9060    1
  6796  9061  9062    1
  6797  9061  9063    1
  6798  9061  9064    1
  6799  9065  9066    1
  6800  9065  9067    1
  6801  9065  9068    1
  6802  9069  9070    1
  6803  9069  9071    1
  6804  9069  9072    1
  6805  9073  9074    1
  6806  9073  9075    1
  6807  9073  9076    1
  6808  9077  9078    1
  6809  9077  9079    1
  6810  9077  9080    1
  6811  9081  9082    1
  6812  9081  9083    1
  6813  9081  9084    1
  6814  9085  9086    1
  6815  9085  9087    1
  6816  9085  9088    1
  6817  9089  9090    1
  6818  9089  9091    1
  6819  9089  9092    1
  6820  9093  9094    1
  6821  9093  9095    1
  6822  9093  9096    1
  6823  9097  9098    1
  6824  9097  9099    1
  6825  9097  9100    1
  6826  9101  9102    1
  6827  9101  9103    1
  6828  9101  9104    1
  6829  9105  9106    1
  6830  9105  9107    1
  6831  9105  9108    1
  6832  9109  9110    1
  6833  9109  9111    1
  6834  9109  9112    1
  6835  9113  9114    1
  6836  9113  9115    1
  6837  9113  9116    1
  6838  9117  9118    1
  6839  9117  9119    1
  6840  9117  9120    1
  6841  9121  9122    1
  6842  9121  9123    1
  6843  9121  9124    1
  6844  9125  9126    1
  6845  9125  9127    1
  6846  9125  9128    1
  6847  9129  9130    1
  6848  9129  9131    1
  6849  9129  9132    1
  6850  9133  9134    1
  6851  9133  9135    1
  6852  9133  9136    1
  6853  9137  9138    1
  6854  9137  9139    1
  6855  9137  9140    1
  6856  9141  9142    1
  6857  9141  9143    1
  6858  9141  9144    1
  6859  9145  9146    1
  6860  9145  9147    1
  6861  9145  9148    1
  6862  9149  9150    1
  6863  9149  9151    1
  6864  9149  9152    1
  6865  9153  9154    1
  6866  9153  9155    1
  6867  9153  9156    1
  6868  9157  9158    1
  6869  9157  9159    1
  6870  9157  9160    1
  6871  9161  9162    1
  6872  9161  9163    1
  6873  9161  9164    1
  6874  9165  9166    1
  6875  9165  9167    1
  6876  9165  9168    1
  6877  9169  9170    1
  6878  9169  9171    1
  6879  9169  9172    1
  6880  9173  9174    1
  6881  9173  9175    1
  6882  9173  9176    1
  6883  9177  9178    1
  6884  9177  9179    1
  6885  9177  9180    1
  6886  9181  9182    1
  6887  9181  9183    1
  6888  9181  9184    1
  6889  9185  9186    1
  6890  9185  9187    1
  6891  9185  9188    1
  6892  9189  9190    1
  6893  9189  9191    1
  6894  9189  9192    1
  6895  9193  9194    1
  6896  9193  9195    1
  6897  9193  9196    1
  6898  9197  9198    1
  6899  9197  9199    1
  6900  9197  9200    1
  6901  9201  9202    1
  6902  9201  9203    1
  6903  9201  9204    1
  6904  9205  9206    1
  6905  9205  9207    1
  6906  9205  9208    1
  6907  9209  9210    1
  6908  9209  9211    1
  6909  9209  9212    1
  6910  9213  9214    1
  6911  9213  9215    1
  6912  9213  9216    1
  6913  9217  9218    1
  6914  9217  9219    1
  6915  9217  9220    1
  6916  9221  9222    1
  6917  9221  9223    1
  6918  9221  9224    1
  6919  9225  9226    1
  6920  9225  9227    1
  6921  9225  9228    1
  6922  9229  9230    1
  6923  9229  9231    1
  6924  9229  9232    1
  6925  9233  9234    1
  6926  9233  9235    1
  6927  9233  9236    1
  6928  9237  9238    1
  6929  9237  9239    1
  6930  9237  9240    1
  6931  9241  9242    1
  6932  9241  9243    1
  6933  9241  9244    1
  6934  9245  9246    1
  6935  9245  9247    1
  6936  9245  9248    1
  6937  9249  9250    1
  6938  9249  9251    1
  6939  9249  9252    1
  6940  9253  9254    1
  6941  9253  9255    1
  6942  9253  9256    1
  6943  9257  9258    1
  6944  9257  9259    1
  6945  9257  9260    1
  6946  9261  9262    1
  6947  9261  9263    1
  6948  9261  9264    1
  6949  9265  9266    1
  6950  9265  9267    1
  6951  9265  9268    1
  6952  9269  9270    1
  6953  9269  9271    1
  6954  9269  9272    1
  6955  9273  9274    1
  6956  9273  9275    1
  6957  9273  9276    1
  6958  9277  9278    1
  6959  9277  9279    1
  6960  9277  9280    1
  6961  9281  9282    1
  6962  9281  9283    1
  6963  9281  9284    1
  6964  9285  9286    1
  6965  9285  9287    1
  6966  9285  9288    1
  6967  9289  9290    1
  6968  9289  9291    1
  6969  9289  9292    1
  6970  9293  9294    1
  6971  9293  9295    1
  6972  9293  9296    1
  6973  9297  9298    1
  6974  9297  9299    1
  6975  9297  9300    1
  6976  9301  9302    1
  6977  9301  9303    1
  6978  9301  9304    1
  6979  9305  9306    1
  6980  9305  9307    1
  6981  9305  9308    1
  6982  9309  9310    1
  6983  9309  9311    1
  6984  9309  9312    1
  6985  9313  9314    1
  6986  9313  9315    1
  6987  9313  9316    1
  6988  9317  9318    1
  6989  9317  9319    1
  6990  9317  9320    1
  6991  9321  9322    1
  6992  9321  9323    1
  6993  9321  9324    1
  6994  9325  9326    1
  6995  9325  9327    1
  6996  9325  9328    1
  6997  9329  9330    1
  6998  9329  9331    1
  6999  9329  9332    1
  7000  9333  9334    1
  7001  9333  9335    1
  7002  9333  9336    1
  7003  9337  9338    1
  7004  9337  9339    1
  7005  9337  9340    1
  7006  9341  9342    1
  7007  9341  9343    1
  7008  9341  9344    1
  7009  9345  9346    1
  7010  9345  9347    1
  7011  9345  9348    1
  7012  9349  9350    1
  7013  9349  9351    1
  7014  9349  9352    1
  7015  9353  9354    1
  7016  9353  9355    1
  7017  9353  9356    1
  7018  9357  9358    1
  7019  9357  9359    1
  7020  9357  9360    1
  7021  9361  9362    1
  7022  9361  9363    1
  7023  9361  9364    1
  7024  9365  9366    1
  7025  9365  9367    1
  7026  9365  9368    1
  7027  9369  9370    1
  7028  9369  9371    1
  7029  9369  9372    1
  7030  9373  9374    1
  7031  9373  9375    1
  7032  9373  9376    1
  7033  9377  9378    1
  7034  9377  9379    1
  7035  9377  9380    1
  7036  9381  9382    1
  7037  9381  9383    1
  7038  9381  9384    1
  7039  9385  9386    1
  7040  9385  9387    1
  7041  9385  9388    1
  7042  9389  9390    1
  7043  9389  9391    1
  7044  9389  9392    1
  7045  9393  9394    1
  7046  9393  9395    1
  7047  9393  9396    1
  7048  9397  9398    1
  7049  9397  9399    1
  7050  9397  9400    1
  7051  9401  9402    1
  7052  9401  9403    1
  7053  9401  9404    1
  7054  9405  9406    1
  7055  9405  9407    1
  7056  9405  9408    1
  7057  9409  9410    1
  7058  9409  9411    1
  7059  9409  9412    1
  7060  9413  9414    1
  7061  9413  9415    1
  7062  9413  9416    1
  7063  9417  9418    1
  7064  9417  9419    1
  7065  9417  9420    1
  7066  9421  9422    1
  7067  9421  9423    1
  7068  9421  9424    1
  7069  9425  9426    1
  7070  9425  9427    1
  7071  9425  9428    1
  7072  9429  9430    1
  7073  9429  9431    1
  7074  9429  9432    1
  7075  9433  9434    1
  7076  9433  9435    1
  7077  9433  9436    1
  7078  9437  9438    1
  7079  9437  9439    1
  7080  9437  9440    1
  7081  9441  9442    1
  7082  9441  9443    1
  7083  9441  9444    1
  7084  9445  9446    1
  7085  9445  9447    1
  7086  9445  9448    1
  7087  9449  9450    1
  7088  9449  9451    1
  7089  9449  9452    1
  7090  9453  9454    1
  7091  9453  9455    1
  7092  9453  9456    1
  7093  9457  9458    1
  7094  9457  9459    1
  7095  9457  9460    1
  7096  9461  9462    1
  7097  9461  9463    1
  7098  9461  9464    1
  7099  9465  9466    1
  7100  9465  9467    1
  7101  9465  9468    1
  7102  9469  9470    1
  7103  9469  9471    1
  7104  9469  9472    1
  7105  9473  9474    1
  7106  9473  9475    1
  7107  9473  9476    1
  7108  9477  9478    1
  7109  9477  9479    1
  7110  9477  9480    1
  7111  9481  9482    1
  7112  9481  9483    1
  7113  9481  9484    1
  7114  9485  9486    1
  7115  9485  9487    1
  7116  9485  9488    1
  7117  9489  9490    1
  7118  9489  9491    1
  7119  9489  9492    1
  7120  9493  9494    1
  7121  9493  9495    1
  7122  9493  9496    1
  7123  9497  9498    1
  7124  9497  9499    1
  7125  9497  9500    1
  7126  9501  9502    1
  7127  9501  9503    1
  7128  9501  9504    1
  7129  9505  9506    1
  7130  9505  9507    1
  7131  9505  9508    1
  7132  9509  9510    1
  7133  9509  9511    1
  7134  9509  9512    1
  7135  9513  9514    1
  7136  9513  9515    1
  7137  9513  9516    1
  7138  9517  9518    1
  7139  9517  9519    1
  7140  9517  9520    1
  7141  9521  9522    1
  7142  9521  9523    1
  7143  9521  9524    1
  7144  9525  9526    1
  7145  9525  9527    1
  7146  9525  9528    1
  7147  9529  9530    1
  7148  9529  9531    1
  7149  9529  9532    1
  7150  9533  9534    1
  7151  9533  9535    1
  7152  9533  9536    1
  7153  9537  9538    1
  7154  9537  9539    1
  7155  9537  9540    1
  7156  9541  9542    1
  7157  9541  9543    1
  7158  9541  9544    1
  7159  9545  9546    1
  7160  9545  9547    1
  7161  9545  9548    1
  7162  9549  9550    1
  7163  9549  9551    1
  7164  9549  9552    1
  7165  9553  9554    1
  7166  9553  9555    1
  7167  9553  9556    1
  7168  9557  9558    1
  7169  9557  9559    1
  7170  9557  9560    1
  7171  9561  9562    1
  7172  9561  9563    1
  7173  9561  9564    1
  7174  9565  9566    1
  7175  9565  9567    1
  7176  9565  9568    1
  7177  9569  9570    1
  7178  9569  9571    1
  7179  9569  9572    1
  7180  9573  9574    1
  7181  9573  9575    1
  7182  9573  9576    1
  7183  9577  9578    1
  7184  9577  9579    1
  7185  9577  9580    1
  7186  9581  9582    1
  7187  9581  9583    1
  7188  9581  9584    1
  7189  9585  9586    1
  7190  9585  9587    1
  7191  9585  9588    1
  7192  9589  9590    1
  7193  9589  9591    1
  7194  9589  9592    1
  7195  9593  9594    1
  7196  9593  9595    1
  7197  9593  9596    1
  7198  9597  9598    1
  7199  9597  9599    1
  7200  9597  9600    1
  7201  9601  9602    1
  7202  9601  9603    1
  7203  9601  9604    1
  7204  9605  9606    1
  7205  9605  9607    1
  7206  9605  9608    1
  7207  9609  9610    1
  7208  9609  9611    1
  7209  9609  9612    1
  7210  9613  9614    1
  7211  9613  9615    1
  7212  9613  9616    1
  7213  9617  9618    1
  7214  9617  9619    1
  7215  9617  9620    1
  7216  9621  9622    1
  7217  9621  9623    1
  7218  9621  9624    1
  7219  9625  9626    1
  7220  9625  9627    1
  7221  9625  9628    1
  7222  9629  9630    1
  7223  9629  9631    1
  7224  9629  9632    1
  7225  9633  9634    1
  7226  9633  9635    1
  7227  9633  9636    1
  7228  9637  9638    1
  7229  9637  9639    1
  7230  9637  9640    1
  7231  9641  9642    1
  7232  9641  9643    1
  7233  9641  9644    1
  7234  9645  9646    1
  7235  9645  9647    1
  7236  9645  9648    1
  7237  9649  9650    1
  7238  9649  9651    1
  7239  9649  9652    1
  7240  9653  9654    1
  7241  9653  9655    1
  7242  9653  9656    1
  7243  9657  9658    1
  7244  9657  9659    1
  7245  9657  9660    1
  7246  9661  9662    1
  7247  9661  9663    1
  7248  9661  9664    1
  7249  9665  9666    1
  7250  9665  9667    1
  7251  9665  9668    1
  7252  9669  9670    1
  7253  9669  9671    1
  7254  9669  9672    1
  7255  9673  9674    1
  7256  9673  9675    1
  7257  9673  9676    1
  7258  9677  9678    1
  7259  9677  9679    1
  7260  9677  9680    1
  7261  9681  9682    1
  7262  9681  9683    1
  7263  9681  9684    1
  7264  9685  9686    1
  7265  9685  9687    1
  7266  9685  9688    1
  7267  9689  9690    1
  7268  9689  9691    1
  7269  9689  9692    1
  7270  9693  9694    1
  7271  9693  9695    1
  7272  9693  9696    1
  7273  9697  9698    1
  7274  9697  9699    1
  7275  9697  9700    1
  7276  9701  9702    1
  7277  9701  9703    1
  7278  9701  9704    1
  7279  9705  9706    1
  7280  9705  9707    1
  7281  9705  9708    1
  7282  9709  9710    1
  7283  9709  9711    1
  7284  9709  9712    1
  7285  9713  9714    1
  7286  9713  9715    1
  7287  9713  9716    1
  7288  9717  9718    1
  7289  9717  9719    1
  7290  9717  9720    1
  7291  9721  9722    1
  7292  9721  9723    1
  7293  9721  9724    1
  7294  9725  9726    1
  7295  9725  9727    1
  7296  9725  9728    1
  7297  9729  9730    1
  7298  9729  9731    1
  7299  9729  9732    1
  7300  9733  9734    1
  7301  9733  9735    1
  7302  9733  9736    1
  7303  9737  9738    1
  7304  9737  9739    1
  7305  9737  9740    1
  7306  9741  9742    1
  7307  9741  9743    1
  7308  9741  9744    1
  7309  9745  9746    1
  7310  9745  9747    1
  7311  9745  9748    1
  7312  9749  9750    1
  7313  9749  9751    1
  7314  9749  9752    1
  7315  9753  9754    1
  7316  9753  9755    1
  7317  9753  9756    1
  7318  9757  9758    1
  7319  9757  9759    1
  7320  9757  9760    1
  7321  9761  9762    1
  7322  9761  9763    1
  7323  9761  9764    1
  7324  9765  9766    1
  7325  9765  9767    1
  7326  9765  9768    1
  7327  9769  9770    1
  7328  9769  9771    1
  7329  9769  9772    1
  7330  9773  9774    1
  7331  9773  9775    1
  7332  9773  9776    1
  7333  9777  9778    1
  7334  9777  9779    1
  7335  9777  9780    1
  7336  9781  9782    1
  7337  9781  9783    1
  7338  9781  9784    1
  7339  9785  9786    1
  7340  9785  9787    1
  7341  9785  9788    1
  7342  9789  9790    1
  7343  9789  9791    1
  7344  9789  9792    1
  7345  9793  9794    1
  7346  9793  9795    1
  7347  9793  9796    1
  7348  9797  9798    1
  7349  9797  9799    1
  7350  9797  9800    1
  7351  9801  9802    1
  7352  9801  9803    1
  7353  9801  9804    1
  7354  9805  9806    1
  7355  9805  9807    1
  7356  9805  9808    1
  7357  9809  9810    1
  7358  9809  9811    1
  7359  9809  9812    1
  7360  9813  9814    1
  7361  9813  9815    1
  7362  9813  9816    1
  7363  9817  9818    1
  7364  9817  9819    1
  7365  9817  9820    1
  7366  9821  9822    1
  7367  9821  9823    1
  7368  9821  9824    1
  7369  9825  9826    1
  7370  9825  9827    1
  7371  9825  9828    1
  7372  9829  9830    1
  7373  9829  9831    1
  7374  9829  9832    1
  7375  9833  9834    1
  7376  9833  9835    1
  7377  9833  9836    1
  7378  9837  9838    1
  7379  9837  9839    1
  7380  9837  9840    1
  7381  9841  9842    1
  7382  9841  9843    1
  7383  9841  9844    1
  7384  9845  9846    1
  7385  9845  9847    1
  7386  9845  9848    1
  7387  9849  9850    1
  7388  9849  9851    1
  7389  9849  9852    1
  7390  9853  9854    1
  7391  9853  9855    1
  7392  9853  9856    1
  7393  9857  9858    1
  7394  9857  9859    1
  7395  9857  9860    1
  7396  9861  9862    1
  7397  9861  9863    1
  7398  9861  9864    1
  7399  9865  9866    1
  7400  9865  9867    1
  7401  9865  9868    1
  7402  9869  9870    1
  7403  9869  9871    1
  7404  9869  9872    1
  7405  9873  9874    1
  7406  9873  9875    1
  7407  9873  9876    1
  7408  9877  9878    1
  7409  9877  9879    1
  7410  9877  9880    1
  7411  9881  9882    1
  7412  9881  9883    1
  7413  9881  9884    1
  7414  9885  9886    1
  7415  9885  9887    1
  7416  9885  9888    1
  7417  9889  9890    1
  7418  9889  9891    1
  7419  9889  9892    1
  7420  9893  9894    1
  7421  9893  9895    1
  7422  9893  9896    1
  7423  9897  9898    1
  7424  9897  9899    1
  7425  9897  9900    1
  7426  9901  9902    1
  7427  9901  9903    1
  7428  9901  9904    1
  7429  9905  9906    1
  7430  9905  9907    1
  7431  9905  9908    1
  7432  9909  9910    1
  7433  9909  9911    1
  7434  9909  9912    1
  7435  9913  9914    1
  7436  9913  9915    1
  7437  9913  9916    1
  7438  9917  9918    1
  7439  9917  9919    1
  7440  9917  9920    1
  7441  9921  9922    1
  7442  9921  9923    1
  7443  9921  9924    1
  7444  9925  9926    1
  7445  9925  9927    1
  7446  9925  9928    1
  7447  9929  9930    1
  7448  9929  9931    1
  7449  9929  9932    1
  7450  9933  9934    1
  7451  9933  9935    1
  7452  9933  9936    1
  7453  9937  9938    1
  7454  9937  9939    1
  7455  9937  9940    1
  7456  9941  9942    1
  7457  9941  9943    1
  7458  9941  9944    1
  7459  9945  9946    1
  7460  9945  9947    1
  7461  9945  9948    1
  7462  9949  9950    1
  7463  9949  9951    1
  7464  9949  9952    1
  7465  9953  9954    1
  7466  9953  9955    1
  7467  9953  9956    1
  7468  9957  9958    1
  7469  9957  9959    1
  7470  9957  9960    1
  7471  9961  9962    1
  7472  9961  9963    1
  7473  9961  9964    1
  7474  9965  9966    1
  7475  9965  9967    1
  7476  9965  9968    1
  7477  9969  9970    1
  7478  9969  9971    1
  7479  9969  9972    1
  7480  9973  9974    1
  7481  9973  9975    1
  7482  9973  9976    1
  7483  9977  9978    1
  7484  9977  9979    1
  7485  9977  9980    1
  7486  9981  9982    1
  7487  9981  9983    1
  7488  9981  9984    1
  7489  9985  9986    1
  7490  9985  9987    1
  7491  9985  9988    1
  7492  9989  9990    1
  7493  9989  9991    1
  7494  9989  9992    1
  7495  9993  9994    1
  7496  9993  9995    1
  7497  9993  9996    1
  7498  9997  9998    1
  7499  9997  9999    1
  7500  9997 10000    1
  7501 10001 10002    1
  7502 10001 10003    1
  7503 10001 10004    1
  7504 10005 10006    1
  7505 10005 10007    1
  7506 10005 10008    1
  7507 10009 10010    1
  7508 10009 10011    1
  7509 10009 10012    1
  7510 10013 10014    1
  7511 10013 10015    1
  7512 10013 10016    1
  7513 10017 10018    1
  7514 10017 10019    1
  7515 10017 10020    1
  7516 10021 10022    1
  7517 10021 10023    1
  7518 10021 10024    1
  7519 10025 10026    1
  7520 10025 10027    1
  7521 10025 10028    1
  7522 10029 10030    1
  7523 10029 10031    1
  7524 10029 10032    1
  7525 10033 10034    1
  7526 10033 10035    1
  7527 10033 10036    1
  7528 10037 10038    1
  7529 10037 10039    1
  7530 10037 10040    1
  7531 10041 10042    1
  7532 10041 10043    1
  7533 10041 10044    1
  7534 10045 10046    1
  7535 10045 10047    1
  7536 10045 10048    1
  7537 10049 10050    1
  7538 10049 10051    1
  7539 10049 10052    1
  7540 10053 10054    1
  7541 10053 10055    1
  7542 10053 10056    1
  7543 10057 10058    1
  7544 10057 10059    1
  7545 10057 10060    1
  7546 10061 10062    1
  7547 10061 10063    1
  7548 10061 10064    1
  7549 10065 10066    1
  7550 10065 10067    1
  7551 10065 10068    1
  7552 10069 10070    1
  7553 10069 10071    1
  7554 10069 10072    1
  7555 10073 10074    1
  7556 10073 10075    1
  7557 10073 10076    1
  7558 10077 10078    1
  7559 10077 10079    1
  7560 10077 10080    1
  7561 10081 10082    1
  7562 10081 10083    1
  7563 10081 10084    1
  7564 10085 10086    1
  7565 10085 10087    1
  7566 10085 10088    1
  7567 10089 10090    1
  7568 10089 10091    1
  7569 10089 10092    1
  7570 10093 10094    1
  7571 10093 10095    1
  7572 10093 10096    1
  7573 10097 10098    1
  7574 10097 10099    1
  7575 10097 10100    1
  7576 10101 10102    1
  7577 10101 10103    1
  7578 10101 10104    1
  7579 10105 10106    1
  7580 10105 10107    1
  7581 10105 10108    1
  7582 10109 10110    1
  7583 10109 10111    1
  7584 10109 10112    1
  7585 10113 10114    1
  7586 10113 10115    1
  7587 10113 10116    1
  7588 10117 10118    1
  7589 10117 10119    1
  7590 10117 10120    1
  7591 10121 10122    1
  7592 10121 10123    1
  7593 10121 10124    1
  7594 10125 10126    1
  7595 10125 10127    1
  7596 10125 10128    1
  7597 10129 10130    1
  7598 10129 10131    1
  7599 10129 10132    1
  7600 10133 10134    1
  7601 10133 10135    1
  7602 10133 10136    1
  7603 10137 10138    1
  7604 10137 10139    1
  7605 10137 10140    1
  7606 10141 10142    1
  7607 10141 10143    1
  7608 10141 10144    1
  7609 10145 10146    1
  7610 10145 10147    1
  7611 10145 10148    1
  7612 10149 10150    1
  7613 10149 10151    1
  7614 10149 10152    1
  7615 10153 10154    1
  7616 10153 10155    1
  7617 10153 10156    1
  7618 10157 10158    1
  7619 10157 10159    1
  7620 10157 10160    1
  7621 10161 10162    1
  7622 10161 10163    1
  7623 10161 10164    1
  7624 10165 10166    1
  7625 10165 10167    1
  7626 10165 10168    1
  7627 10169 10170    1
  7628 10169 10171    1
  7629 10169 10172    1
  7630 10173 10174    1
  7631 10173 10175    1
  7632 10173 10176    1
  7633 10177 10178    1
  7634 10177 10179    1
  7635 10177 10180    1
  7636 10181 10182    1
  7637 10181 10183    1
  7638 10181 10184    1
  7639 10185 10186    1
  7640 10185 10187    1
  7641 10185 10188    1
  7642 10189 10190    1
  7643 10189 10191    1
  7644 10189 10192    1
  7645 10193 10194    1
  7646 10193 10195    1
  7647 10193 10196    1
  7648 10197 10198    1
  7649 10197 10199    1
  7650 10197 10200    1
  7651 10201 10202    1
  7652 10201 10203    1
  7653 10201 10204    1
  7654 10205 10206    1
  7655 10205 10207    1
  7656 10205 10208    1
  7657 10209 10210    1
  7658 10209 10211    1
  7659 10209 10212    1
  7660 10213 10214    1
  7661 10213 10215    1
  7662 10213 10216    1
  7663 10217 10218    1
  7664 10217 10219    1
  7665 10217 10220    1
  7666 10221 10222    1
  7667 10221 10223    1
  7668 10221 10224    1
  7669 10225 10226    1
  7670 10225 10227    1
  7671 10225 10228    1
  7672 10229 10230    1
  7673 10229 10231    1
  7674 10229 10232    1
  7675 10233 10234    1
  7676 10233 10235    1
  7677 10233 10236    1
  7678 10237 10238    1
  7679 10237 10239    1
  7680 10237 10240    1
  7681 10241 10242    1
  7682 10241 10243    1
  7683 10241 10244    1
  7684 10245 10246    1
  7685 10245 10247    1
  7686 10245 10248    1
  7687 10249 10250    1
  7688 10249 10251    1
  7689 10249 10252    1
  7690 10253 10254    1
  7691 10253 10255    1
  7692 10253 10256    1
  7693 10257 10258    1
  7694 10257 10259    1
  7695 10257 10260    1
  7696 10261 10262    1
  7697 10261 10263    1
  7698 10261 10264    1
  7699 10265 10266    1
  7700 10265 10267    1
  7701 10265 10268    1
  7702 10269 10270    1
  7703 10269 10271    1
  7704 10269 10272    1
  7705 10273 10274    1
  7706 10273 10275    1
  7707 10273 10276    1
  7708 10277 10278    1
  7709 10277 10279    1
  7710 10277 10280    1
  7711 10281 10282    1
  7712 10281 10283    1
  7713 10281 10284    1
  7714 10285 10286    1
  7715 10285 10287    1
  7716 10285 10288    1
  7717 10289 10290    1
  7718 10289 10291    1
  7719 10289 10292    1
  7720 10293 10294    1
  7721 10293 10295    1
  7722 10293 10296    1
  7723 10297 10298    1
  7724 10297 10299    1
  7725 10297 10300    1
  7726 10301 10302    1
  7727 10301 10303    1
  7728 10301 10304    1
  7729 10305 10306    1
  7730 10305 10307    1
  7731 10305 10308    1
  7732 10309 10310    1
  7733 10309 10311    1
  7734 10309 10312    1
  7735 10313 10314    1
  7736 10313 10315    1
  7737 10313 10316    1
  7738 10317 10318    1
  7739 10317 10319    1
  7740 10317 10320    1
  7741 10321 10322    1
  7742 10321 10323    1
  7743 10321 10324    1
  7744 10325 10326    1
  7745 10325 10327    1
  7746 10325 10328    1
  7747 10329 10330    1
  7748 10329 10331    1
  7749 10329 10332    1
  7750 10333 10334    1
  7751 10333 10335    1
  7752 10333 10336    1
  7753 10337 10338    1
  7754 10337 10339    1
  7755 10337 10340    1
  7756 10341 10342    1
  7757 10341 10343    1
  7758 10341 10344    1
  7759 10345 10346    1
  7760 10345 10347    1
  7761 10345 10348    1
  7762 10349 10350    1
  7763 10349 10351    1
  7764 10349 10352    1
  7765 10353 10354    1
  7766 10353 10355    1
  7767 10353 10356    1
  7768 10357 10358    1
  7769 10357 10359    1
  7770 10357 10360    1
  7771 10361 10362    1
  7772 10361 10363    1
  7773 10361 10364    1
  7774 10365 10366    1
  7775 10365 10367    1
  7776 10365 10368    1
  7777 10369 10370    1
  7778 10369 10371    1
  7779 10369 10372    1
  7780 10373 10374    1
  7781 10373 10375    1
  7782 10373 10376    1
  7783 10377 10378    1
  7784 10377 10379    1
  7785 10377 10380    1
  7786 10381 10382    1
  7787 10381 10383    1
  7788 10381 10384    1
  7789 10385 10386    1
  7790 10385 10387    1
  7791 10385 10388    1
  7792 10389 10390    1
  7793 10389 10391    1
  7794 10389 10392    1
  7795 10393 10394    1
  7796 10393 10395    1
  7797 10393 10396    1
  7798 10397 10398    1
  7799 10397 10399    1
  7800 10397 10400    1
  7801 10401 10402    1
  7802 10401 10403    1
  7803 10401 10404    1
  7804 10405 10406    1
  7805 10405 10407    1
  7806 10405 10408    1
  7807 10409 10410    1
  7808 10409 10411    1
  7809 10409 10412    1
  7810 10413 10414    1
  7811 10413 10415    1
  7812 10413 10416    1
  7813 10417 10418    1
  7814 10417 10419    1
  7815 10417 10420    1
  7816 10421 10422    1
  7817 10421 10423    1
  7818 10421 10424    1
  7819 10425 10426    1
  7820 10425 10427    1
  7821 10425 10428    1
  7822 10429 10430    1
  7823 10429 10431    1
  7824 10429 10432    1
  7825 10433 10434    1
  7826 10433 10435    1
  7827 10433 10436    1
  7828 10437 10438    1
  7829 10437 10439    1
  7830 10437 10440    1
  7831 10441 10442    1
  7832 10441 10443    1
  7833 10441 10444    1
  7834 10445 10446    1
  7835 10445 10447    1
  7836 10445 10448    1
  7837 10449 10450    1
  7838 10449 10451    1
  7839 10449 10452    1
  7840 10453 10454    1
  7841 10453 10455    1
  7842 10453 10456    1
  7843 10457 10458    1
  7844 10457 10459    1
  7845 10457 10460    1
  7846 10461 10462    1
  7847 10461 10463    1
  7848 10461 10464    1
  7849 10465 10466    1
  7850 10465 10467    1
  7851 10465 10468    1
  7852 10469 10470    1
  7853 10469 10471    1
  7854 10469 10472    1
  7855 10473 10474    1
  7856 10473 10475    1
  7857 10473 10476    1
  7858 10477 10478    1
  7859 10477 10479    1
  7860 10477 10480    1
  7861 10481 10482    1
  7862 10481 10483    1
  7863 10481 10484    1
  7864 10485 10486    1
  7865 10485 10487    1
  7866 10485 10488    1
  7867 10489 10490    1
  7868 10489 10491    1
  7869 10489 10492    1
  7870 10493 10494    1
  7871 10493 10495    1
  7872 10493 10496    1
  7873 10497 10498    1
  7874 10497 10499    1
  7875 10497 10500    1
  7876 10501 10502    1
  7877 10501 10503    1
  7878 10501 10504    1
  7879 10505 10506    1
  7880 10505 10507    1
  7881 10505 10508    1
  7882 10509 10510    1
  7883 10509 10511    1
  7884 10509 10512    1
  7885 10513 10514    1
  7886 10513 10515    1
  7887 10513 10516    1
  7888 10517 10518    1
  7889 10517 10519    1
  7890 10517 10520    1
  7891 10521 10522    1
  7892 10521 10523    1
  7893 10521 10524    1
  7894 10525 10526    1
  7895 10525 10527    1
  7896 10525 10528    1
  7897 10529 10530    1
  7898 10529 10531    1
  7899 10529 10532    1
  7900 10533 10534    1
  7901 10533 10535    1
  7902 10533 10536    1
  7903 10537 10538    1
  7904 10537 10539    1
  7905 10537 10540    1
  7906 10541 10542    1
  7907 10541 10543    1
  7908 10541 10544    1
  7909 10545 10546    1
  7910 10545 10547    1
  7911 10545 10548    1
  7912 10549 10550    1
  7913 10549 10551    1
  7914 10549 10552    1
  7915 10553 10554    1
  7916 10553 10555    1
  7917 10553 10556    1
  7918 10557 10558    1
  7919 10557 10559    1
  7920 10557 10560    1
  7921 10561 10562    1
  7922 10561 10563    1
  7923 10561 10564    1
  7924 10565 10566    1
  7925 10565 10567    1
  7926 10565 10568    1
  7927 10569 10570    1
  7928 10569 10571    1
  7929 10569 10572    1
  7930 10573 10574    1
  7931 10573 10575    1
  7932 10573 10576    1
  7933 10577 10578    1
  7934 10577 10579    1
  7935 10577 10580    1
  7936 10581 10582    1
  7937 10581 10583    1
  7938 10581 10584    1
  7939 10585 10586    1
  7940 10585 10587    1
  7941 10585 10588    1
  7942 10589 10590    1
  7943 10589 10591    1
  7944 10589 10592    1
  7945 10593 10594    1
  7946 10593 10595    1
  7947 10593 10596    1
  7948 10597 10598    1
  7949 10597 10599    1
  7950 10597 10600    1
  7951 10601 10602    1
  7952 10601 10603    1
  7953 10601 10604    1
  7954 10605 10606    1
  7955 10605 10607    1
  7956 10605 10608    1
  7957 10609 10610    1
  7958 10609 10611    1
  7959 10609 10612    1
  7960 10613 10614    1
  7961 10613 10615    1
  7962 10613 10616    1
  7963 10617 10618    1
  7964 10617 10619    1
  7965 10617 10620    1
  7966 10621 10622    1
  7967 10621 10623    1
  7968 10621 10624    1
  7969 10625 10626    1
  7970 10625 10627    1
  7971 10625 10628    1
  7972 10629 10630    1
  7973 10629 10631    1
  7974 10629 10632    1
  7975 10633 10634    1
  7976 10633 10635    1
  7977 10633 10636    1
  7978 10637 10638    1
  7979 10637 10639    1
  7980 10637 10640    1
  7981 10641 10642    1
  7982 10641 10643    1
  7983 10641 10644    1
  7984 10645 10646    1
  7985 10645 10647    1
  7986 10645 10648    1
  7987 10649 10650    1
  7988 10649 10651    1
  7989 10649 10652    1
  7990 10653 10654    1
  7991 10653 10655    1
  7992 10653 10656    1
  7993 10657 10658    1
  7994 10657 10659    1
  7995 10657 10660    1
  7996 10661 10662    1
  7997 10661 10663    1
  7998 10661 10664    1
  7999 10665 10666    1
  8000 10665 10667    1
  8001 10665 10668    1
  8002 10669 10670    1
  8003 10669 10671    1
  8004 10669 10672    1
  8005 10673 10674    1
  8006 10673 10675    1
  8007 10673 10676    1
  8008 10677 10678    1
  8009 10677 10679    1
  8010 10677 10680    1
  8011 10681 10682    1
  8012 10681 10683    1
  8013 10681 10684    1
  8014 10685 10686    1
  8015 10685 10687    1
  8016 10685 10688    1
  8017 10689 10690    1
  8018 10689 10691    1
  8019 10689 10692    1
  8020 10693 10694    1
  8021 10693 10695    1
  8022 10693 10696    1
  8023 10697 10698    1
  8024 10697 10699    1
  8025 10697 10700    1
  8026 10701 10702    1
  8027 10701 10703    1
  8028 10701 10704    1
  8029 10705 10706    1
  8030 10705 10707    1
  8031 10705 10708    1
  8032 10709 10710    1
  8033 10709 10711    1
  8034 10709 10712    1
  8035 10713 10714    1
  8036 10713 10715    1
  8037 10713 10716    1
  8038 10717 10718    1
  8039 10717 10719    1
  8040 10717 10720    1
  8041 10721 10722    1
  8042 10721 10723    1
  8043 10721 10724    1
  8044 10725 10726    1
  8045 10725 10727    1
  8046 10725 10728    1
  8047 10729 10730    1
  8048 10729 10731    1
  8049 10729 10732    1
  8050 10733 10734    1
  8051 10733 10735    1
  8052 10733 10736    1
  8053 10737 10738    1
  8054 10737 10739    1
  8055 10737 10740    1
  8056 10741 10742    1
  8057 10741 10743    1
  8058 10741 10744    1
  8059 10745 10746    1
  8060 10745 10747    1
  8061 10745 10748    1
  8062 10749 10750    1
  8063 10749 10751    1
  8064 10749 10752    1
  8065 10753 10754    1
  8066 10753 10755    1
  8067 10753 10756    1
  8068 10757 10758    1
  8069 10757 10759    1
  8070 10757 10760    1
  8071 10761 10762    1
  8072 10761 10763    1
  8073 10761 10764    1
  8074 10765 10766    1
  8075 10765 10767    1
  8076 10765 10768    1
  8077 10769 10770    1
  8078 10769 10771    1
  8079 10769 10772    1
  8080 10773 10774    1
  8081 10773 10775    1
  8082 10773 10776    1
  8083 10777 10778    1
  8084 10777 10779    1
  8085 10777 10780    1
  8086 10781 10782    1
  8087 10781 10783    1
  8088 10781 10784    1
  8089 10785 10786    1
  8090 10785 10787    1
  8091 10785 10788    1
  8092 10789 10790    1
  8093 10789 10791    1
  8094 10789 10792    1
  8095 10793 10794    1
  8096 10793 10795    1
  8097 10793 10796    1
  8098 10797 10798    1
  8099 10797 10799    1
  8100 10797 10800    1
  8101 10801 10802    1
  8102 10801 10803    1
  8103 10801 10804    1
  8104 10805 10806    1
  8105 10805 10807    1
  8106 10805 10808    1
  8107 10809 10810    1
  8108 10809 10811    1
  8109 10809 10812    1
  8110 10813 10814    1
  8111 10813 10815    1
  8112 10813 10816    1
  8113 10817 10818    1
  8114 10817 10819    1
  8115 10817 10820    1
  8116 10821 10822    1
  8117 10821 10823    1
  8118 10821 10824    1
  8119 10825 10826    1
  8120 10825 10827    1
  8121 10825 10828    1
  8122 10829 10830    1
  8123 10829 10831    1
  8124 10829 10832    1
  8125 10833 10834    1
  8126 10833 10835    1
  8127 10833 10836    1
  8128 10837 10838    1
  8129 10837 10839    1
  8130 10837 10840    1
  8131 10841 10842    1
  8132 10841 10843    1
  8133 10841 10844    1
  8134 10845 10846    1
  8135 10845 10847    1
  8136 10845 10848    1
  8137 10849 10850    1
  8138 10849 10851    1
  8139 10849 10852    1
  8140 10853 10854    1
  8141 10853 10855    1
  8142 10853 10856    1
  8143 10857 10858    1
  8144 10857 10859    1
  8145 10857 10860    1
  8146 10861 10862    1
  8147 10861 10863    1
  8148 10861 10864    1
  8149 10865 10866    1
  8150 10865 10867    1
  8151 10865 10868    1
  8152 10869 10870    1
  8153 10869 10871    1
  8154 10869 10872    1
  8155 10873 10874    1
  8156 10873 10875    1
  8157 10873 10876    1
  8158 10877 10878    1
  8159 10877 10879    1
  8160 10877 10880    1
  8161 10881 10882    1
  8162 10881 10883    1
  8163 10881 10884    1
  8164 10885 10886    1
  8165 10885 10887    1
  8166 10885 10888    1
  8167 10889 10890    1
  8168 10889 10891    1
  8169 10889 10892    1
  8170 10893 10894    1
  8171 10893 10895    1
  8172 10893 10896    1
  8173 10897 10898    1
  8174 10897 10899    1
  8175 10897 10900    1
  8176 10901 10902    1
  8177 10901 10903    1
  8178 10901 10904    1
  8179 10905 10906    1
  8180 10905 10907    1
  8181 10905 10908    1
  8182 10909 10910    1
  8183 10909 10911    1
  8184 10909 10912    1
  8185 10913 10914    1
  8186 10913 10915    1
  8187 10913 10916    1
  8188 10917 10918    1
  8189 10917 10919    1
  8190 10917 10920    1
  8191 10921 10922    1
  8192 10921 10923    1
  8193 10921 10924    1
  8194 10925 10926    1
  8195 10925 10927    1
  8196 10925 10928    1
  8197 10929 10930    1
  8198 10929 10931    1
  8199 10929 10932    1
  8200 10933 10934    1
  8201 10933 10935    1
  8202 10933 10936    1
  8203 10937 10938    1
  8204 10937 10939    1
  8205 10937 10940    1
  8206 10941 10942    1
  8207 10941 10943    1
  8208 10941 10944    1
  8209 10945 10946    1
  8210 10945 10947    1
  8211 10945 10948    1
  8212 10949 10950    1
  8213 10949 10951    1
  8214 10949 10952    1
  8215 10953 10954    1
  8216 10953 10955    1
  8217 10953 10956    1
  8218 10957 10958    1
  8219 10957 10959    1
  8220 10957 10960    1
  8221 10961 10962    1
  8222 10961 10963    1
  8223 10961 10964    1
  8224 10965 10966    1
  8225 10965 10967    1
  8226 10965 10968    1
  8227 10969 10970    1
  8228 10969 10971    1
  8229 10969 10972    1
  8230 10973 10974    1
  8231 10973 10975    1
  8232 10973 10976    1
  8233 10977 10978    1
  8234 10977 10979    1
  8235 10977 10980    1
  8236 10981 10982    1
  8237 10981 10983    1
  8238 10981 10984    1
  8239 10985 10986    1
  8240 10985 10987    1
  8241 10985 10988    1
  8242 10989 10990    1
  8243 10989 10991    1
  8244 10989 10992    1
  8245 10993 10994    1
  8246 10993 10995    1
  8247 10993 10996    1
  8248 10997 10998    1
  8249 10997 10999    1
  8250 10997 11000    1
  8251 11001 11002    1
  8252 11001 11003    1
  8253 11001 11004    1
  8254 11005 11006    1
  8255 11005 11007    1
  8256 11005 11008    1
  8257 11009 11010    1
  8258 11009 11011    1
  8259 11009 11012    1
  8260 11013 11014    1
  8261 11013 11015    1
  8262 11013 11016    1
  8263 11017 11018    1
  8264 11017 11019    1
  8265 11017 11020    1
  8266 11021 11022    1
  8267 11021 11023    1
  8268 11021 11024    1
  8269 11025 11026    1
  8270 11025 11027    1
  8271 11025 11028    1
  8272 11029 11030    1
  8273 11029 11031    1
  8274 11029 11032    1
  8275 11033 11034    1
  8276 11033 11035    1
  8277 11033 11036    1
  8278 11037 11038    1
  8279 11037 11039    1
  8280 11037 11040    1
  8281 11041 11042    1
  8282 11041 11043    1
  8283 11041 11044    1
  8284 11045 11046    1
  8285 11045 11047    1
  8286 11045 11048    1
  8287 11049 11050    1
  8288 11049 11051    1
  8289 11049 11052    1
  8290 11053 11054    1
  8291 11053 11055    1
  8292 11053 11056    1
  8293 11057 11058    1
  8294 11057 11059    1
  8295 11057 11060    1
  8296 11061 11062    1
  8297 11061 11063    1
  8298 11061 11064    1
  8299 11065 11066    1
  8300 11065 11067    1
  8301 11065 11068    1
  8302 11069 11070    1
  8303 11069 11071    1
  8304 11069 11072    1
  8305 11073 11074    1
  8306 11073 11075    1
  8307 11073 11076    1
  8308 11077 11078    1
  8309 11077 11079    1
  8310 11077 11080    1
  8311 11081 11082    1
  8312 11081 11083    1
  8313 11081 11084    1
  8314 11085 11086    1
  8315 11085 11087    1
  8316 11085 11088    1
  8317 11089 11090    1
  8318 11089 11091    1
  8319 11089 11092    1
  8320 11093 11094    1
  8321 11093 11095    1
  8322 11093 11096    1
  8323 11097 11098    1
  8324 11097 11099    1
  8325 11097 11100    1
  8326 11101 11102    1
  8327 11101 11103    1
  8328 11101 11104    1
  8329 11105 11106    1
  8330 11105 11107    1
  8331 11105 11108    1
  8332 11109 11110    1
  8333 11109 11111    1
  8334 11109 11112    1
  8335 11113 11114    1
  8336 11113 11115    1
  8337 11113 11116    1
  8338 11117 11118    1
  8339 11117 11119    1
  8340 11117 11120    1
  8341 11121 11122    1
  8342 11121 11123    1
  8343 11121 11124    1
  8344 11125 11126    1
  8345 11125 11127    1
  8346 11125 11128    1
  8347 11129 11130    1
  8348 11129 11131    1
  8349 11129 11132    1
  8350 11133 11134    1
  8351 11133 11135    1
  8352 11133 11136    1
  8353 11137 11138    1
  8354 11137 11139    1
  8355 11137 11140    1
  8356 11141 11142    1
  8357 11141 11143    1
  8358 11141 11144    1
  8359 11145 11146    1
  8360 11145 11147    1
  8361 11145 11148    1
  8362 11149 11150    1
  8363 11149 11151    1
  8364 11149 11152    1
  8365 11153 11154    1
  8366 11153 11155    1
  8367 11153 11156    1
  8368 11157 11158    1
  8369 11157 11159    1
  8370 11157 11160    1
  8371 11161 11162    1
  8372 11161 11163    1
  8373 11161 11164    1
  8374 11165 11166    1
  8375 11165 11167    1
  8376 11165 11168    1
  8377 11169 11170    1
  8378 11169 11171    1
  8379 11169 11172    1
  8380 11173 11174    1
  8381 11173 11175    1
  8382 11173 11176    1
  8383 11177 11178    1
  8384 11177 11179    1
  8385 11177 11180    1
  8386 11181 11182    1
  8387 11181 11183    1
  8388 11181 11184    1
  8389 11185 11186    1
  8390 11185 11187    1
  8391 11185 11188    1
  8392 11189 11190    1
  8393 11189 11191    1
  8394 11189 11192    1
  8395 11193 11194    1
  8396 11193 11195    1
  8397 11193 11196    1
  8398 11197 11198    1
  8399 11197 11199    1
  8400 11197 11200    1
  8401 11201 11202    1
  8402 11201 11203    1
  8403 11201 11204    1
  8404 11205 11206    1
  8405 11205 11207    1
  8406 11205 11208    1
  8407 11209 11210    1
  8408 11209 11211    1
  8409 11209 11212    1
  8410 11213 11214    1
  8411 11213 11215    1
  8412 11213 11216    1
  8413 11217 11218    1
  8414 11217 11219    1
  8415 11217 11220    1
  8416 11221 11222    1
  8417 11221 11223    1
  8418 11221 11224    1
  8419 11225 11226    1
  8420 11225 11227    1
  8421 11225 11228    1
  8422 11229 11230    1
  8423 11229 11231    1
  8424 11229 11232    1
  8425 11233 11234    1
  8426 11233 11235    1
  8427 11233 11236    1
  8428 11237 11238    1
  8429 11237 11239    1
  8430 11237 11240    1
  8431 11241 11242    1
  8432 11241 11243    1
  8433 11241 11244    1
  8434 11245 11246    1
  8435 11245 11247    1
  8436 11245 11248    1
  8437 11249 11250    1
  8438 11249 11251    1
  8439 11249 11252    1
  8440 11253 11254    1
  8441 11253 11255    1
  8442 11253 11256    1
  8443 11257 11258    1
  8444 11257 11259    1
  8445 11257 11260    1
  8446 11261 11262    1
  8447 11261 11263    1
  8448 11261 11264    1
  8449 11265 11266    1
  8450 11265 11267    1
  8451 11265 11268    1
  8452 11269 11270    1
  8453 11269 11271    1
  8454 11269 11272    1
  8455 11273 11274    1
  8456 11273 11275    1
  8457 11273 11276    1
  8458 11277 11278    1
  8459 11277 11279    1
  8460 11277 11280    1
  8461 11281 11282    1
  8462 11281 11283    1
  8463 11281 11284    1
  8464 11285 11286    1
  8465 11285 11287    1
  8466 11285 11288    1
  8467 11289 11290    1
  8468 11289 11291    1
  8469 11289 11292    1
  8470 11293 11294    1
  8471 11293 11295    1
  8472 11293 11296    1
  8473 11297 11298    1
  8474 11297 11299    1
  8475 11297 11300    1
  8476 11301 11302    1
  8477 11301 11303    1
  8478 11301 11304    1
  8479 11305 11306    1
  8480 11305 11307    1
  8481 11305 11308    1
  8482 11309 11310    1
  8483 11309 11311    1
  8484 11309 11312    1
  8485 11313 11314    1
  8486 11313 11315    1
  8487 11313 11316    1
  8488 11317 11318    1
  8489 11317 11319    1
  8490 11317 11320    1
  8491 11321 11322    1
  8492 11321 11323    1
  8493 11321 11324    1
  8494 11325 11326    1
  8495 11325 11327    1
  8496 11325 11328    1
  8497 11329 11330    1
  8498 11329 11331    1
  8499 11329 11332    1
  8500 11333 11334    1
  8501 11333 11335    1
  8502 11333 11336    1
  8503 11337 11338    1
  8504 11337 11339    1
  8505 11337 11340    1
  8506 11341 11342    1
  8507 11341 11343    1
  8508 11341 11344    1
  8509 11345 11346    1
  8510 11345 11347    1
  8511 11345 11348    1
  8512 11349 11350    1
  8513 11349 11351    1
  8514 11349 11352    1
  8515 11353 11354    1
  8516 11353 11355    1
  8517 11353 11356    1
  8518 11357 11358    1
  8519 11357 11359    1
  8520 11357 11360    1
  8521 11361 11362    1
  8522 11361 11363    1
  8523 11361 11364    1
  8524 11365 11366    1
  8525 11365 11367    1
  8526 11365 11368    1
  8527 11369 11370    1
  8528 11369 11371    1
  8529 11369 11372    1
  8530 11373 11374    1
  8531 11373 11375    1
  8532 11373 11376    1
  8533 11377 11378    1
  8534 11377 11379    1
  8535 11377 11380    1
  8536 11381 11382    1
  8537 11381 11383    1
  8538 11381 11384    1
  8539 11385 11386    1
  8540 11385 11387    1
  8541 11385 11388    1
  8542 11389 11390    1
  8543 11389 11391    1
  8544 11389 11392    1
  8545 11393 11394    1
  8546 11393 11395    1
  8547 11393 11396    1
  8548 11397 11398    1
  8549 11397 11399    1
  8550 11397 11400    1
  8551 11401 11402    1
  8552 11401 11403    1
  8553 11401 11404    1
  8554 11405 11406    1
  8555 11405 11407    1
  8556 11405 11408    1
  8557 11409 11410    1
  8558 11409 11411    1
  8559 11409 11412    1
  8560 11413 11414    1
  8561 11413 11415    1
  8562 11413 11416    1
  8563 11417 11418    1
  8564 11417 11419    1
  8565 11417 11420    1
  8566 11421 11422    1
  8567 11421 11423    1
  8568 11421 11424    1
  8569 11425 11426    1
  8570 11425 11427    1
  8571 11425 11428    1
  8572 11429 11430    1
  8573 11429 11431    1
  8574 11429 11432    1
  8575 11433 11434    1
  8576 11433 11435    1
  8577 11433 11436    1
  8578 11437 11438    1
  8579 11437 11439    1
  8580 11437 11440    1
  8581 11441 11442    1
  8582 11441 11443    1
  8583 11441 11444    1
  8584 11445 11446    1
  8585 11445 11447    1
  8586 11445 11448    1
  8587 11449 11450    1
  8588 11449 11451    1
  8589 11449 11452    1
  8590 11453 11454    1
  8591 11453 11455    1
  8592 11453 11456    1
  8593 11457 11458    1
  8594 11457 11459    1
  8595 11457 11460    1
  8596 11461 11462    1
  8597 11461 11463    1
  8598 11461 11464    1
  8599 11465 11466    1
  8600 11465 11467    1
  8601 11465 11468    1
  8602 11469 11470    1
  8603 11469 11471    1
  8604 11469 11472    1
  8605 11473 11474    1
  8606 11473 11475    1
  8607 11473 11476    1
  8608 11477 11478    1
  8609 11477 11479    1
  8610 11477 11480    1
  8611 11481 11482    1
  8612 11481 11483    1
  8613 11481 11484    1
  8614 11485 11486    1
  8615 11485 11487    1
  8616 11485 11488    1
  8617 11489 11490    1
  8618 11489 11491    1
  8619 11489 11492    1
  8620 11493 11494    1
  8621 11493 11495    1
  8622 11493 11496    1
  8623 11497 11498    1
  8624 11497 11499    1
  8625 11497 11500    1
  8626 11501 11502    1
  8627 11501 11503    1
  8628 11501 11504    1
  8629 11505 11506    1
  8630 11505 11507    1
  8631 11505 11508    1
  8632 11509 11510    1
  8633 11509 11511    1
  8634 11509 11512    1
  8635 11513 11514    1
  8636 11513 11515    1
  8637 11513 11516    1
  8638 11517 11518    1
  8639 11517 11519    1
  8640 11517 11520    1
  8641 11521 11522    1
  8642 11521 11523    1
  8643 11521 11524    1
  8644 11525 11526    1
  8645 11525 11527    1
  8646 11525 11528    1
  8647 11529 11530    1
  8648 11529 11531    1
  8649 11529 11532    1
  8650 11533 11534    1
  8651 11533 11535    1
  8652 11533 11536    1
  8653 11537 11538    1
  8654 11537 11539    1
  8655 11537 11540    1
  8656 11541 11542    1
  8657 11541 11543    1
  8658 11541 11544    1
  8659 11545 11546    1
  8660 11545 11547    1
  8661 11545 11548    1
  8662 11549 11550    1
  8663 11549 11551    1
  8664 11549 11552    1
  8665 11553 11554    1
  8666 11553 11555    1
  8667 11553 11556    1
  8668 11557 11558    1
  8669 11557 11559    1
  8670 11557 11560    1
  8671 11561 11562    1
  8672 11561 11563    1
  8673 11561 11564    1
  8674 11565 11566    1
  8675 11565 11567    1
  8676 11565 11568    1
  8677 11569 11570    1
  8678 11569 11571    1
  8679 11569 11572    1
  8680 11573 11574    1
  8681 11573 11575    1
  8682 11573 11576    1
  8683 11577 11578    1
  8684 11577 11579    1
  8685 11577 11580    1
  8686 11581 11582    1
  8687 11581 11583    1
  8688 11581 11584    1
  8689 11585 11586    1
  8690 11585 11587    1
  8691 11585 11588    1
  8692 11589 11590    1
  8693 11589 11591    1
  8694 11589 11592    1
  8695 11593 11594    1
  8696 11593 11595    1
  8697 11593 11596    1
  8698 11597 11598    1
  8699 11597 11599    1
  8700 11597 11600    1
  8701 11601 11602    1
  8702 11601 11603    1
  8703 11601 11604    1
  8704 11605 11606    1
  8705 11605 11607    1
  8706 11605 11608    1
  8707 11609 11610    1
  8708 11609 11611    1
  8709 11609 11612    1
  8710 11613 11614    1
  8711 11613 11615    1
  8712 11613 11616    1
  8713 11617 11618    1
  8714 11617 11619    1
  8715 11617 11620    1
  8716 11621 11622    1
  8717 11621 11623    1
  8718 11621 11624    1
  8719 11625 11626    1
  8720 11625 11627    1
  8721 11625 11628    1
  8722 11629 11630    1
  8723 11629 11631    1
  8724 11629 11632    1
  8725 11633 11634    1
  8726 11633 11635    1
  8727 11633 11636    1
  8728 11637 11638    1
  8729 11637 11639    1
  8730 11637 11640    1
  8731 11641 11642    1
  8732 11641 11643    1
  8733 11641 11644    1
  8734 11645 11646    1
  8735 11645 11647    1
  8736 11645 11648    1
  8737 11649 11650    1
  8738 11649 11651    1
  8739 11649 11652    1
  8740 11653 11654    1
  8741 11653 11655    1
  8742 11653 11656    1
  8743 11657 11658    1
  8744 11657 11659    1
  8745 11657 11660    1
  8746 11661 11662    1
  8747 11661 11663    1
  8748 11661 11664    1
  8749 11665 11666    1
  8750 11665 11667    1
  8751 11665 11668    1
  8752 11669 11670    1
  8753 11669 11671    1
  8754 11669 11672    1
  8755 11673 11674    1
  8756 11673 11675    1
  8757 11673 11676    1
  8758 11677 11678    1
  8759 11677 11679    1
  8760 11677 11680    1
  8761 11681 11682    1
  8762 11681 11683    1
  8763 11681 11684    1
  8764 11685 11686    1
  8765 11685 11687    1
  8766 11685 11688    1
  8767 11689 11690    1
  8768 11689 11691    1
  8769 11689 11692    1
  8770 11693 11694    1
  8771 11693 11695    1
  8772 11693 11696    1
  8773 11697 11698    1
  8774 11697 11699    1
  8775 11697 11700    1
  8776 11701 11702    1
  8777 11701 11703    1
  8778 11701 11704    1
  8779 11705 11706    1
  8780 11705 11707    1
  8781 11705 11708    1
  8782 11709 11710    1
  8783 11709 11711    1
  8784 11709 11712    1
  8785 11713 11714    1
  8786 11713 11715    1
  8787 11713 11716    1
  8788 11717 11718    1
  8789 11717 11719    1
  8790 11717 11720    1
  8791 11721 11722    1
  8792 11721 11723    1
  8793 11721 11724    1
  8794 11725 11726    1
  8795 11725 11727    1
  8796 11725 11728    1
  8797 11729 11730    1
  8798 11729 11731    1
  8799 11729 11732    1
  8800 11733 11734    1
  8801 11733 11735    1
  8802 11733 11736    1
  8803 11737 11738    1
  8804 11737 11739    1
  8805 11737 11740    1
  8806 11741 11742    1
  8807 11741 11743    1
  8808 11741 11744    1
  8809 11745 11746    1
  8810 11745 11747    1
  8811 11745 11748    1
  8812 11749 11750    1
  8813 11749 11751    1
  8814 11749 11752    1
  8815 11753 11754    1
  8816 11753 11755    1
  8817 11753 11756    1
  8818 11757 11758    1
  8819 11757 11759    1
  8820 11757 11760    1
  8821 11761 11762    1
  8822 11761 11763    1
  8823 11761 11764    1
  8824 11765 11766    1
  8825 11765 11767    1
  8826 11765 11768    1
  8827 11769 11770    1
  8828 11769 11771    1
  8829 11769 11772    1
  8830 11773 11774    1
  8831 11773 11775    1
  8832 11773 11776    1
  8833 11777 11778    1
  8834 11777 11779    1
  8835 11777 11780    1
  8836 11781 11782    1
  8837 11781 11783    1
  8838 11781 11784    1
  8839 11785 11786    1
  8840 11785 11787    1
  8841 11785 11788    1
  8842 11789 11790    1
  8843 11789 11791    1
  8844 11789 11792    1
  8845 11793 11794    1
  8846 11793 11795    1
  8847 11793 11796    1
  8848 11797 11798    1
  8849 11797 11799    1
  8850 11797 11800    1
  8851 11801 11802    1
  8852 11801 11803    1
  8853 11801 11804    1
  8854 11805 11806    1
  8855 11805 11807    1
  8856 11805 11808    1
  8857 11809 11810    1
  8858 11809 11811    1
  8859 11809 11812    1
  8860 11813 11814    1
  8861 11813 11815    1
  8862 11813 11816    1
  8863 11817 11818    1
  8864 11817 11819    1
  8865 11817 11820    1
  8866 11821 11822    1
  8867 11821 11823    1
  8868 11821 11824    1
  8869 11825 11826    1
  8870 11825 11827    1
  8871 11825 11828    1
  8872 11829 11830    1
  8873 11829 11831    1
  8874 11829 11832    1
  8875 11833 11834    1
  8876 11833 11835    1
  8877 11833 11836    1
  8878 11837 11838    1
  8879 11837 11839    1
  8880 11837 11840    1
  8881 11841 11842    1
  8882 11841 11843    1
  8883 11841 11844    1
  8884 11845 11846    1
  8885 11845 11847    1
  8886 11845 11848    1
  8887 11849 11850    1
  8888 11849 11851    1
  8889 11849 11852    1
  8890 11853 11854    1
  8891 11853 11855    1
  8892 11853 11856    1
  8893 11857 11858    1
  8894 11857 11859    1
  8895 11857 11860    1
  8896 11861 11862    1
  8897 11861 11863    1
  8898 11861 11864    1
  8899 11865 11866    1
  8900 11865 11867    1
  8901 11865 11868    1
  8902 11869 11870    1
  8903 11869 11871    1
  8904 11869 11872    1
  8905 11873 11874    1
  8906 11873 11875    1
  8907 11873 11876    1
  8908 11877 11878    1
  8909 11877 11879    1
  8910 11877 11880    1
  8911 11881 11882    1
  8912 11881 11883    1
  8913 11881 11884    1
  8914 11885 11886    1
  8915 11885 11887    1
  8916 11885 11888    1
  8917 11889 11890    1
  8918 11889 11891    1
  8919 11889 11892    1
  8920 11893 11894    1
  8921 11893 11895    1
  8922 11893 11896    1
  8923 11897 11898    1
  8924 11897 11899    1
  8925 11897 11900    1
  8926 11901 11902    1
  8927 11901 11903    1
  8928 11901 11904    1
  8929 11905 11906    1
  8930 11905 11907    1
  8931 11905 11908    1
  8932 11909 11910    1
  8933 11909 11911    1
  8934 11909 11912    1
  8935 11913 11914    1
  8936 11913 11915    1
  8937 11913 11916    1
  8938 11917 11918    1
  8939 11917 11919    1
  8940 11917 11920    1
  8941 11921 11922    1
  8942 11921 11923    1
  8943 11921 11924    1
  8944 11925 11926    1
  8945 11925 11927    1
  8946 11925 11928    1
  8947 11929 11930    1
  8948 11929 11931    1
  8949 11929 11932    1
  8950 11933 11934    1
  8951 11933 11935    1
  8952 11933 11936    1
  8953 11937 11938    1
  8954 11937 11939    1
  8955 11937 11940    1
  8956 11941 11942    1
  8957 11941 11943    1
  8958 11941 11944    1
  8959 11945 11946    1
  8960 11945 11947    1
  8961 11945 11948    1
  8962 11949 11950    1
  8963 11949 11951    1
  8964 11949 11952    1
  8965 11953 11954    1
  8966 11953 11955    1
  8967 11953 11956    1
  8968 11957 11958    1
  8969 11957 11959    1
  8970 11957 11960    1
  8971 11961 11962    1
  8972 11961 11963    1
  8973 11961 11964    1
  8974 11965 11966    1
  8975 11965 11967    1
  8976 11965 11968    1
  8977 11969 11970    1
  8978 11969 11971    1
  8979 11969 11972    1
  8980 11973 11974    1
  8981 11973 11975    1
  8982 11973 11976    1
  8983 11977 11978    1
  8984 11977 11979    1
  8985 11977 11980    1
  8986 11981 11982    1
  8987 11981 11983    1
  8988 11981 11984    1
  8989 11985 11986    1
  8990 11985 11987    1
  8991 11985 11988    1
  8992 11989 11990    1
  8993 11989 11991    1
  8994 11989 11992    1
  8995 11993 11994    1
  8996 11993 11995    1
  8997 11993 11996    1
  8998 11997 11998    1
  8999 11997 11999    1
  9000 11997 12000    1
  9001 12001 12002    1
  9002 12001 12003    1
  9003 12001 12004    1
  9004 12005 12006    1
  9005 12005 12007    1
  9006 12005 12008    1
  9007 12009 12010    1
  9008 12009 12011    1
  9009 12009 12012    1
  9010 12013 12014    1
  9011 12013 12015    1
  9012 12013 12016    1
  9013 12017 12018    1
  9014 12017 12019    1
  9015 12017 12020    1
  9016 12021 12022    1
  9017 12021 12023    1
  9018 12021 12024    1
  9019 12025 12026    1
  9020 12025 12027    1
  9021 12025 12028    1
  9022 12029 12030    1
  9023 12029 12031    1
  9024 12029 12032    1
  9025 12033 12034    1
  9026 12033 12035    1
  9027 12033 12036    1
  9028 12037 12038    1
  9029 12037 12039    1
  9030 12037 12040    1
  9031 12041 12042    1
  9032 12041 12043    1
  9033 12041 12044    1
  9034 12045 12046    1
  9035 12045 12047    1
  9036 12045 12048    1
  9037 12049 12050    1
  9038 12049 12051    1
  9039 12049 12052    1
  9040 12053 12054    1
  9041 12053 12055    1
  9042 12053 12056    1
  9043 12057 12058    1
  9044 12057 12059    1
  9045 12057 12060    1
  9046 12061 12062    1
  9047 12061 12063    1
  9048 12061 12064    1
  9049 12065 12066    1
  9050 12065 12067    1
  9051 12065 12068    1
  9052 12069 12070    1
  9053 12069 12071    1
  9054 12069 12072    1
  9055 12073 12074    1
  9056 12073 12075    1
  9057 12073 12076    1
  9058 12077 12078    1
  9059 12077 12079    1
  9060 12077 12080    1
  9061 12081 12082    1
  9062 12081 12083    1
  9063 12081 12084    1
  9064 12085 12086    1
  9065 12085 12087    1
  9066 12085 12088    1
