@<TRIPOS>MOLECULE
*****
 124 93 0 0 0
SMALL
GASTEIGER

@<TRIPOS>ATOM
      1 N           0.2242   -0.8649    2.9530 N.3     1  UNL1       -0.3437
      2 H           0.4156   -1.1129    3.9227 H       1  UNL1        0.1146
      3 H           1.1336   -0.7496    2.5079 H       1  UNL1        0.1146
      4 H          -0.1932   -1.6920    2.5287 H       1  UNL1        0.1146
      5 N           0.1619   -0.1435    5.3458 N.3     2  UNL2       -0.3437
      6 H           0.0073    0.3704    4.4796 H       2  UNL2        0.1146
      7 H           1.0019   -0.7006    5.1957 H       2  UNL2        0.1146
      8 H           0.4092    0.5543    6.0461 H       2  UNL2        0.1146
      9 N           0.1462    2.3559    0.5720 N.3     3  UNL3       -0.3437
     10 H           0.5829    1.7128    1.2309 H       3  UNL3        0.1146
     11 H          -0.0042    3.2238    1.0843 H       3  UNL3        0.1146
     12 H           0.8554    2.5633   -0.1298 H       3  UNL3        0.1146
     13 N           0.2253    2.4143    2.7481 N.3     4  UNL4       -0.3437
     14 H           1.2199    2.4371    2.5278 H       4  UNL4        0.1146
     15 H           0.0343    1.4726    3.0873 H       4  UNL4        0.1146
     16 H           0.1008    3.0318    3.5491 H       4  UNL4        0.1146
     17 N           0.1021    2.4369    5.2379 N.3     5  UNL5       -0.3437
     18 H           0.4248    3.3939    5.1023 H       5  UNL5        0.1146
     19 H           0.6183    1.8688    4.5677 H       5  UNL5        0.1146
     20 H           0.4350    2.1561    6.1592 H       5  UNL5        0.1146
     21 N           0.6755   -0.1798    0.7414 N.3     6  UNL6       -0.3437
     22 H           0.3062    0.2349    1.5958 H       6  UNL6        0.1146
     23 H          -0.1264   -0.5725    0.2504 H       6  UNL6        0.1146
     24 H           1.0015    0.5981    0.1697 H       6  UNL6        0.1146
     25 N           2.3736    0.1759    5.1377 N.3     7  UNL7       -0.3437
     26 H           3.2009    0.7370    5.3355 H       7  UNL7        0.1146
     27 H           2.6935   -0.6040    4.5652 H       7  UNL7        0.1146
     28 H           2.0887   -0.2282    6.0287 H       7  UNL7        0.1146
     29 N           2.3338    2.4018    0.8245 N.3     8  UNL8       -0.3437
     30 H           2.3194    3.3035    0.3501 H       8  UNL8        0.1146
     31 H           2.5812    1.7145    0.1140 H       8  UNL8        0.1146
     32 H           3.1226    2.4360    1.4688 H       8  UNL8        0.1146
     33 N           2.5279    0.9899    3.2661 N.3     9  UNL9       -0.3437
     34 H           2.9240    1.8408    2.8694 H       9  UNL9        0.1146
     35 H           1.7044    0.7755    2.7054 H       9  UNL9        0.1146
     36 H           3.2006    0.2497    3.0714 H       9  UNL9        0.1146
     37 N           2.4053    2.6893    5.2143 N.3    10  UNL10      -0.3437
     38 H           3.0736    2.8907    5.9567 H      10  UNL10       0.1146
     39 H           2.9602    2.4352    4.3983 H      10  UNL10       0.1146
     40 H           1.9178    1.8406    5.4978 H      10  UNL10       0.1146
     41 N           2.9963    0.2546    0.5322 N.3    11  UNL11      -0.3437
     42 H           2.6892    0.5026    1.4716 H      11  UNL11       0.1146
     43 H           3.7332   -0.4391    0.6516 H      11  UNL11       0.1146
     44 H           2.2146   -0.2375    0.1020 H      11  UNL11       0.1146
     45 N           4.7441   -0.7076    2.1063 N.3    12  UNL12      -0.3437
     46 H           3.9101   -1.2132    1.8111 H      12  UNL12       0.1146
     47 H           5.4874   -1.4021    2.1653 H      12  UNL12       0.1146
     48 H           4.9918   -0.0965    1.3295 H      12  UNL12       0.1146
     49 N           4.7269   -0.2419    4.9998 N.3    13  UNL13      -0.3437
     50 H           5.6093   -0.7253    5.1618 H      13  UNL13       0.1146
     51 H           4.9729    0.7125    4.7409 H      13  UNL13       0.1146
     52 H           4.3243   -0.6646    4.1646 H      13  UNL13       0.1146
     53 N           4.6221    2.2549    0.8223 N.3    14  UNL14      -0.3437
     54 H           4.0816    2.8064    0.1574 H      14  UNL14       0.1146
     55 H           5.4074    1.8726    0.2973 H      14  UNL14       0.1146
     56 H           5.0224    2.9219    1.4805 H      14  UNL14       0.1146
     57 N           5.0208    1.3496    2.4274 N.3    15  UNL15      -0.3437
     58 H           5.1398    0.7110    3.2125 H      15  UNL15       0.1146
     59 H           4.1821    1.0402    1.9382 H      15  UNL15       0.1146
     60 H           4.7907    2.2551    2.8342 H      15  UNL15       0.1146
     61 N           4.5538    2.3760    5.4309 N.3    16  UNL16      -0.3437
     62 H           4.4599    2.1153    4.4503 H      16  UNL16       0.1146
     63 H           5.4380    1.9777    5.7440 H      16  UNL16       0.1146
     64 H           4.6817    3.3869    5.4418 H      16  UNL16       0.1146
     65 N           7.1099   -0.0574    0.4367 N.3    17  UNL17      -0.3437
     66 H           6.3521    0.6091    0.2959 H      17  UNL17       0.1146
     67 H           7.7492    0.3800    1.0988 H      17  UNL17       0.1146
     68 H           6.6987   -0.8511    0.9259 H      17  UNL17       0.1146
     69 N           6.8499   -0.4901    2.7116 N.3    18  UNL18      -0.3437
     70 H           6.1969   -0.6858    3.4690 H      18  UNL18       0.1146
     71 H           7.2561    0.4211    2.9193 H      18  UNL18       0.1146
     72 H           7.6070   -1.1646    2.8123 H      18  UNL18       0.1146
     73 N           7.1703    0.2393    5.3136 N.3    19  UNL19      -0.3437
     74 H           6.6031    0.3850    4.4797 H      19  UNL19       0.1146
     75 H           6.5130    0.1214    6.0833 H      19  UNL19       0.1146
     76 H           7.6236   -0.6650    5.1905 H      19  UNL19       0.1146
     77 N           6.9723    2.3087   -0.6842 N.3    20  UNL20      -0.3437
     78 H           6.0772    2.3001   -1.1712 H      20  UNL20       0.1146
     79 H           7.6581    1.9567   -1.3507 H      20  UNL20       0.1146
     80 H           7.2024    3.2903   -0.5366 H      20  UNL20       0.1146
     81 N           7.2374    2.4438    1.5886 N.3    21  UNL21      -0.3437
     82 H           6.5626    3.0168    1.0838 H      21  UNL21       0.1146
     83 H           7.3188    2.8575    2.5163 H      21  UNL21       0.1146
     84 H           6.7912    1.5377    1.7235 H      21  UNL21       0.1146
     85 N           6.8294    2.2616    4.4233 N.3    22  UNL22      -0.3437
     86 H           7.4099    2.8631    5.0060 H      22  UNL22       0.1146
     87 H           6.2140    2.8846    3.9021 H      22  UNL22       0.1146
     88 H           7.4566    1.8466    3.7357 H      22  UNL22       0.1146
     89 N           7.1299    2.0146    7.7380 N.3    23  UNL23      -0.3437
     90 H           6.5427    2.5357    7.0883 H      23  UNL23       0.1146
     91 H           6.5058    1.3789    8.2327 H      23  UNL23       0.1146
     92 H           7.7316    1.4266    7.1630 H      23  UNL23       0.1146
     93 N           9.5346   -1.0366    0.4221 N.3    24  UNL24      -0.3437
     94 H           8.5847   -0.6702    0.3787 H      24  UNL24       0.1146
     95 H          10.0777   -0.3484    0.9415 H      24  UNL24       0.1146
     96 H           9.4895   -1.8642    1.0150 H      24  UNL24       0.1146
     97 N           9.4782    0.2435    2.7969 N.3    25  UNL25      -0.3437
     98 H           9.2087   -0.6649    2.4220 H      25  UNL25       0.1146
     99 H           9.0223    0.3190    3.7051 H      25  UNL25       0.1146
    100 H          10.4773    0.1831    2.9883 H      25  UNL25       0.1146
    101 N           9.9505   -1.3835    5.3612 N.3    26  UNL26      -0.3437
    102 H          10.8026   -1.0214    4.9355 H      26  UNL26       0.1146
    103 H           9.7141   -0.7356    6.1114 H      26  UNL26       0.1146
    104 H           9.2194   -1.2788    4.6590 H      26  UNL26       0.1146
    105 N          10.1029    2.5810    0.9520 N.3    27  UNL27      -0.3437
    106 H           9.2865    2.4345    0.3599 H      27  UNL27       0.1146
    107 H          10.5583    1.6729    1.0321 H      27  UNL27       0.1146
    108 H          10.7388    3.1675    0.4135 H      27  UNL27       0.1146
    109 N           9.5740    2.7537    2.9263 N.3    28  UNL28      -0.3437
    110 H           9.2744    2.5500    3.8788 H      28  UNL28       0.1146
    111 H          10.4467    2.2451    2.7916 H      28  UNL28       0.1146
    112 H           8.8915    2.3070    2.3156 H      28  UNL28       0.1146
    113 N          10.2654    1.6086    5.5227 N.3    29  UNL29      -0.3437
    114 H          10.8037    0.7488    5.6191 H      29  UNL29       0.1146
    115 H          10.7441    2.1616    4.8131 H      29  UNL29       0.1146
    116 H           9.3732    1.3369    5.1122 H      29  UNL29       0.1146
    117 N           9.4083    5.1685    0.7058 N.3    30  UNL30      -0.3437
    118 H           9.1695    4.5464    1.4767 H      30  UNL30       0.1146
    119 H          10.4231    5.2592    0.7220 H      30  UNL30       0.1146
    120 H           9.1856    4.6571   -0.1471 H      30  UNL30       0.1146
    121 N           9.0714    5.1455    7.4111 N.3    31  UNL31      -0.3437
    122 H           9.1353    4.3208    6.8160 H      31  UNL31       0.1146
    123 H           8.4767    4.8807    8.1951 H      31  UNL31       0.1146
    124 H          10.0031    5.2841    7.7998 H      31  UNL31       0.1146
@<TRIPOS>BOND
     1     1     2    1
     2     1     3    1
     3     1     4    1
     4     5     6    1
     5     5     7    1
     6     5     8    1
     7     9    10    1
     8     9    11    1
     9     9    12    1
    10    13    14    1
    11    13    15    1
    12    13    16    1
    13    17    18    1
    14    17    19    1
    15    17    20    1
    16    21    22    1
    17    21    23    1
    18    21    24    1
    19    25    26    1
    20    25    27    1
    21    25    28    1
    22    29    30    1
    23    29    31    1
    24    29    32    1
    25    33    34    1
    26    33    35    1
    27    33    36    1
    28    37    38    1
    29    37    39    1
    30    37    40    1
    31    41    42    1
    32    41    43    1
    33    41    44    1
    34    45    46    1
    35    45    47    1
    36    45    48    1
    37    49    50    1
    38    49    51    1
    39    49    52    1
    40    53    54    1
    41    53    55    1
    42    53    56    1
    43    57    58    1
    44    57    59    1
    45    57    60    1
    46    61    62    1
    47    61    63    1
    48    61    64    1
    49    65    66    1
    50    65    67    1
    51    65    68    1
    52    69    70    1
    53    69    71    1
    54    69    72    1
    55    73    74    1
    56    73    75    1
    57    73    76    1
    58    77    78    1
    59    77    79    1
    60    77    80    1
    61    81    82    1
    62    81    83    1
    63    81    84    1
    64    85    86    1
    65    85    87    1
    66    85    88    1
    67    89    90    1
    68    89    91    1
    69    89    92    1
    70    93    94    1
    71    93    95    1
    72    93    96    1
    73    97    98    1
    74    97    99    1
    75    97   100    1
    76   101   102    1
    77   101   103    1
    78   101   104    1
    79   105   106    1
    80   105   107    1
    81   105   108    1
    82   109   110    1
    83   109   111    1
    84   109   112    1
    85   113   114    1
    86   113   115    1
    87   113   116    1
    88   117   118    1
    89   117   119    1
    90   117   120    1
    91   121   122    1
    92   121   123    1
    93   121   124    1
