@<TRIPOS>MOLECULE
*****
 528 396 0 0 0
SMALL
GASTEIGER

@<TRIPOS>ATOM
      1 N           1.1840    2.0212   -0.5964 N.3     1  UNL1       -0.3437
      2 H           0.4343    2.3009    0.0346 H       1  UNL1        0.1146
      3 H           1.8383    2.8021   -0.6186 H       1  UNL1        0.1146
      4 H           1.6731    1.2582   -0.1306 H       1  UNL1        0.1146
      5 N           0.8293    2.1536    3.2973 N.3     2  UNL2       -0.3437
      6 H           0.4325    2.4224    4.1965 H       2  UNL2        0.1146
      7 H           1.6547    2.7372    3.1687 H       2  UNL2        0.1146
      8 H           1.1740    1.2020    3.4156 H       2  UNL2        0.1146
      9 N           1.1207    1.8479    6.7028 N.3     3  UNL3       -0.3437
     10 H           0.9727    1.4109    7.6114 H       3  UNL3        0.1146
     11 H           0.1953    2.0985    6.3576 H       3  UNL3        0.1146
     12 H           1.5988    2.7283    6.8892 H       3  UNL3        0.1146
     13 N           0.7959    1.9462   10.2049 N.3     4  UNL4       -0.3437
     14 H           0.3267    2.5700   10.8600 H       4  UNL4        0.1146
     15 H           1.5526    2.4898    9.7923 H       4  UNL4        0.1146
     16 H           1.2434    1.2279   10.7726 H       4  UNL4        0.1146
     17 N           1.0763    5.9084   -0.4358 N.3     5  UNL5       -0.3437
     18 H           1.5232    6.2512    0.4134 H       5  UNL5        0.1146
     19 H           1.1938    4.8962   -0.4261 H       5  UNL5        0.1146
     20 H           0.0785    6.0763   -0.3155 H       5  UNL5        0.1146
     21 N           1.1342    5.8761    2.9838 N.3     6  UNL6       -0.3437
     22 H           1.5159    6.3059    3.8251 H       6  UNL6        0.1146
     23 H           1.5843    4.9653    2.9047 H       6  UNL6        0.1146
     24 H           0.1531    5.6880    3.1848 H       6  UNL6        0.1146
     25 N           1.1677    5.7579    6.6478 N.3     7  UNL7       -0.3437
     26 H           0.6385    5.7993    5.7780 H       7  UNL7        0.1146
     27 H           1.6281    6.6623    6.7398 H       7  UNL7        0.1146
     28 H           0.4765    5.7173    7.3954 H       7  UNL7        0.1146
     29 N           0.8846    5.6194   10.0273 N.3     8  UNL8       -0.3437
     30 H           0.1790    5.8014   10.7396 H       8  UNL8        0.1146
     31 H           1.4118    6.4856    9.9265 H       8  UNL8        0.1146
     32 H           1.5291    4.9444   10.4364 H       8  UNL8        0.1146
     33 N           1.1056    9.3758   -0.0660 N.3     9  UNL9       -0.3437
     34 H           1.5225    9.9665    0.6521 H       9  UNL9        0.1146
     35 H           1.1891    8.4189    0.2741 H       9  UNL9        0.1146
     36 H           0.1093    9.5894   -0.0618 H       9  UNL9        0.1146
     37 N           0.8274    9.2814    3.1126 N.3    10  UNL10      -0.3437
     38 H           0.3240    9.7303    3.8764 H      10  UNL10       0.1146
     39 H           1.5729    9.9251    2.8511 H      10  UNL10       0.1146
     40 H           1.2881    8.4686    3.5193 H      10  UNL10       0.1146
     41 N           0.9128    9.7532    6.5078 N.3    11  UNL11      -0.3437
     42 H           0.0304    9.7121    7.0157 H      11  UNL11       0.1146
     43 H           1.5927   10.1463    7.1571 H      11  UNL11       0.1146
     44 H           1.1953    8.7858    6.3570 H      11  UNL11       0.1146
     45 N           0.7982    9.5733   10.1492 N.3    12  UNL12      -0.3437
     46 H           0.3107    9.3553   11.0171 H      12  UNL12       0.1146
     47 H           1.5214   10.2477   10.3950 H      12  UNL12       0.1146
     48 H           1.2884    8.7212    9.8809 H      12  UNL12       0.1146
     49 N           0.7956   13.1010   -0.3165 N.3    13  UNL13      -0.3437
     50 H           0.4002   13.4725    0.5460 H      13  UNL13       0.1146
     51 H           1.7525   13.4488   -0.3595 H      13  UNL13       0.1146
     52 H           0.8688   12.0937   -0.1809 H      13  UNL13       0.1146
     53 N           0.8272   14.0277    3.2020 N.3    14  UNL14      -0.3437
     54 H           0.2502   13.5320    3.8800 H      14  UNL14       0.1146
     55 H           1.5920   14.4415    3.7332 H      14  UNL14       0.1146
     56 H           1.2494   13.3100    2.6145 H      14  UNL14       0.1146
     57 N           1.0755   13.0513    6.5666 N.3    15  UNL15      -0.3437
     58 H           0.8608   13.2875    7.5343 H      15  UNL15       0.1146
     59 H           0.2047   13.1656    6.0498 H      15  UNL15       0.1146
     60 H           1.6995   13.7835    6.2306 H      15  UNL15       0.1146
     61 N           0.7158   13.2070   10.1784 N.3    16  UNL16      -0.3437
     62 H           0.8136   13.4466   11.1640 H      16  UNL16       0.1146
     63 H           1.6360   13.3451    9.7631 H      16  UNL16       0.1146
     64 H           0.5424   12.2032   10.1493 H      16  UNL16       0.1146
     65 N           1.0018   17.6176   -0.6249 N.3    17  UNL17      -0.3437
     66 H           0.5883   17.8564    0.2753 H      17  UNL17       0.1146
     67 H           1.6500   18.3724   -0.8453 H      17  UNL17       0.1146
     68 H           1.5770   16.7928   -0.4598 H      17  UNL17       0.1146
     69 N           0.9533   17.4009    2.8984 N.3    18  UNL18      -0.3437
     70 H           0.4820   17.3699    3.8013 H      18  UNL18       0.1146
     71 H           1.6044   18.1832    2.9481 H      18  UNL18       0.1146
     72 H           1.5274   16.5602    2.8523 H      18  UNL18       0.1146
     73 N           0.8129   17.2466    6.4268 N.3    19  UNL19      -0.3437
     74 H           0.3179   17.6888    7.2000 H      19  UNL19       0.1146
     75 H           1.5517   17.8952    6.1586 H      19  UNL19       0.1146
     76 H           1.2830   16.4337    6.8225 H      19  UNL19       0.1146
     77 N           1.0465   17.1010   10.2734 N.3    20  UNL20      -0.3437
     78 H           1.5936   17.7249   10.8648 H      20  UNL20       0.1146
     79 H           1.6972   16.7228    9.5865 H      20  UNL20       0.1146
     80 H           0.7768   16.3171   10.8660 H      20  UNL20       0.1146
     81 N           0.7372   20.8185   -0.3932 N.3    21  UNL21      -0.3437
     82 H           0.2933   21.6186    0.0555 H      21  UNL21       0.1146
     83 H           1.6097   20.6629    0.1096 H      21  UNL21       0.1146
     84 H           0.1457   20.0155   -0.1843 H      21  UNL21       0.1146
     85 N           1.0498   20.7641    2.8799 N.3    22  UNL22      -0.3437
     86 H           1.5628   21.6285    3.0472 H      22  UNL22       0.1146
     87 H           1.1799   20.1942    3.7146 H      22  UNL22       0.1146
     88 H           0.0637   21.0208    2.8661 H      22  UNL22       0.1146
     89 N           0.8142   20.6291    7.0862 N.3    23  UNL23      -0.3437
     90 H           0.3610   21.1002    6.3046 H      23  UNL23       0.1146
     91 H           1.5256   20.0256    6.6762 H      23  UNL23       0.1146
     92 H           1.3195   21.3527    7.5956 H      23  UNL23       0.1146
     93 N           1.1494   20.7582   10.1729 N.3    24  UNL24      -0.3437
     94 H           1.1582   19.7424   10.0931 H      24  UNL24       0.1146
     95 H           0.1698   21.0244   10.2624 H      24  UNL24       0.1146
     96 H           1.5819   20.9733   11.0701 H      24  UNL24       0.1146
     97 N           0.8007   24.3554   -0.2303 N.3    25  UNL25      -0.3437
     98 H           0.3582   25.2619   -0.3745 H      25  UNL25       0.1146
     99 H           1.6472   24.3626   -0.7974 H      25  UNL25       0.1146
    100 H           1.1126   24.3463    0.7398 H      25  UNL25       0.1146
    101 N          -1.1729   24.3871    3.4044 N.3    26  UNL26      -0.3437
    102 H          -0.3269   24.8286    3.7618 H      26  UNL26       0.1146
    103 H          -1.5447   25.0222    2.6995 H      26  UNL26       0.1146
    104 H          -0.8649   23.5570    2.9000 H      26  UNL26       0.1146
    105 N           1.0729   24.3747    6.3611 N.3    27  UNL27      -0.3437
    106 H           1.1386   24.3963    5.3445 H      27  UNL27       0.1146
    107 H           1.4109   25.2803    6.6838 H      27  UNL27       0.1146
    108 H           0.0775   24.3531    6.5779 H      27  UNL27       0.1146
    109 N           0.7936   24.4312   10.3350 N.3    28  UNL28      -0.3437
    110 H           0.3646   24.6156   11.2407 H      28  UNL28       0.1146
    111 H           1.5475   25.1099   10.2379 H      28  UNL28       0.1146
    112 H           1.2442   23.5210   10.4177 H      28  UNL28       0.1146
    113 N           0.8422   28.1250   -0.4226 N.3    29  UNL29      -0.3437
    114 H           0.2321   28.0966    0.3931 H      29  UNL29       0.1146
    115 H           1.5435   28.8372   -0.2242 H      29  UNL29       0.1146
    116 H           1.3399   27.2358   -0.4322 H      29  UNL29       0.1146
    117 N           0.7703   28.2900    2.9797 N.3    30  UNL30      -0.3437
    118 H           0.4049   28.2581    3.9304 H      30  UNL30       0.1146
    119 H           1.5329   28.9658    2.9944 H      30  UNL30       0.1146
    120 H           1.2028   27.3823    2.8143 H      30  UNL30       0.1146
    121 N           0.7661   28.3893    6.6534 N.3    31  UNL31      -0.3437
    122 H           0.0560   28.5305    7.3706 H      31  UNL31       0.1146
    123 H           1.5149   29.0468    6.8662 H      31  UNL31       0.1146
    124 H           1.1520   27.4609    6.8192 H      31  UNL31       0.1146
    125 N           0.8076   28.2270   10.0637 N.3    32  UNL32      -0.3437
    126 H           0.3711   28.3350   10.9781 H      32  UNL32       0.1146
    127 H           1.6341   28.8230   10.0749 H      32  UNL32       0.1146
    128 H           1.1528   27.2689   10.0287 H      32  UNL32       0.1146
    129 N           1.2310   32.2667   -0.6180 N.3    33  UNL33      -0.3437
    130 H           0.3154   32.3465   -0.1780 H      33  UNL33       0.1146
    131 H           1.7595   33.0843   -0.3169 H      33  UNL33       0.1146
    132 H           1.6831   31.4641   -0.1824 H      33  UNL33       0.1146
    133 N           0.7229   32.0707    3.0823 N.3    34  UNL34      -0.3437
    134 H           0.3151   32.2452    3.9997 H      34  UNL34       0.1146
    135 H           1.5372   32.6798    3.0163 H      34  UNL34       0.1146
    136 H           1.0858   31.1190    3.1127 H      34  UNL34       0.1146
    137 N           1.0859   32.2208    6.6124 N.3    35  UNL35      -0.3437
    138 H           1.5913   32.5767    7.4226 H      35  UNL35       0.1146
    139 H           1.2384   31.2133    6.6066 H      35  UNL35       0.1146
    140 H           0.0968   32.3539    6.8178 H      35  UNL35       0.1146
    141 N           0.7813   31.9549    9.8676 N.3    36  UNL36      -0.3437
    142 H           0.4101   32.2345   10.7744 H      36  UNL36       0.1146
    143 H           1.6106   32.5271    9.7149 H      36  UNL36       0.1146
    144 H           1.1168   30.9997    9.9839 H      36  UNL36       0.1146
    145 N           0.7732   36.2485   -0.3056 N.3    37  UNL37      -0.3437
    146 H           0.9584   36.7666    0.5521 H      37  UNL37       0.1146
    147 H           1.6230   35.7227   -0.5051 H      37  UNL37       0.1146
    148 H           0.0640   35.5564   -0.0680 H      37  UNL37       0.1146
    149 N           0.9333   36.1570    3.1638 N.3    38  UNL38      -0.3437
    150 H           0.4872   35.9310    4.0516 H      38  UNL38       0.1146
    151 H           1.6386   36.8615    3.3750 H      38  UNL38       0.1146
    152 H           1.4457   35.3211    2.8861 H      38  UNL38       0.1146
    153 N           0.7960   35.7374    6.6740 N.3    39  UNL39      -0.3437
    154 H           0.3618   36.2950    7.4082 H      39  UNL39       0.1146
    155 H           1.5822   36.2876    6.3312 H      39  UNL39       0.1146
    156 H           1.2022   34.9272    7.1398 H      39  UNL39       0.1146
    157 N           0.9574   35.8134   10.4204 N.3    40  UNL40      -0.3437
    158 H           0.6354   36.5437   11.0541 H      40  UNL40       0.1146
    159 H           1.6286   36.2589    9.7964 H      40  UNL40       0.1146
    160 H           1.4943   35.1625   10.9917 H      40  UNL40       0.1146
    161 N           0.9651   39.3479   -0.0737 N.3    41  UNL41      -0.3437
    162 H           0.3740   39.7770   -0.7842 H      41  UNL41       0.1146
    163 H           1.6160   38.7458   -0.5759 H      41  UNL41       0.1146
    164 H           1.5262   40.1029    0.3182 H      41  UNL41       0.1146
    165 N           1.0173   39.9003    2.9101 N.3    42  UNL42      -0.3437
    166 H           1.5815   40.1197    3.7298 H      42  UNL42       0.1146
    167 H           1.1643   38.9091    2.7251 H      42  UNL42       0.1146
    168 H           0.0462   39.9898    3.2054 H      42  UNL42       0.1146
    169 N           0.0067   39.9738    7.0581 N.3    43  UNL43      -0.3437
    170 H           0.0047   39.0660    7.5209 H      43  UNL43       0.1146
    171 H           0.6378   39.8825    6.2632 H      43  UNL43       0.1146
    172 H          -0.9258   40.0904    6.6642 H      43  UNL43       0.1146
    173 N           0.0510   39.5176   10.1231 N.3    44  UNL44      -0.3437
    174 H          -0.7487   39.7788   10.6981 H      44  UNL44       0.1146
    175 H           0.7465   40.2497   10.2602 H      44  UNL44       0.1146
    176 H           0.4403   38.6774   10.5484 H      44  UNL44       0.1146
    177 N           4.2685    1.9447   -0.3179 N.3    45  UNL45      -0.3437
    178 H           3.6223    2.0933    0.4559 H      45  UNL45       0.1146
    179 H           4.9903    2.6577   -0.2219 H      45  UNL45       0.1146
    180 H           4.7275    1.0539   -0.1334 H      45  UNL45       0.1146
    181 N           4.6171    1.7701    2.8851 N.3    46  UNL46      -0.3437
    182 H           4.6128    1.2423    3.7568 H      46  UNL46       0.1146
    183 H           3.6390    1.9385    2.6539 H      46  UNL46       0.1146
    184 H           5.0132    2.6815    3.1105 H      46  UNL46       0.1146
    185 N           4.2085    2.0337    6.5718 N.3    47  UNL47      -0.3437
    186 H           3.6530    2.1426    7.4191 H      47  UNL47       0.1146
    187 H           4.9958    2.6735    6.6680 H      47  UNL47       0.1146
    188 H           4.6029    1.0950    6.6131 H      47  UNL47       0.1146
    189 N           4.1630    2.5797   10.2378 N.3    48  UNL48      -0.3437
    190 H           3.6731    1.9437    9.6102 H      48  UNL48       0.1146
    191 H           4.8540    2.0136   10.7281 H      48  UNL48       0.1146
    192 H           4.6919    3.2127    9.6395 H      48  UNL48       0.1146
    193 N           4.1730    5.7906   -0.3619 N.3    49  UNL49      -0.3437
    194 H           3.7039    5.9962    0.5190 H      49  UNL49       0.1146
    195 H           4.8973    6.4997   -0.4666 H      49  UNL49       0.1146
    196 H           4.6626    4.9081   -0.2201 H      49  UNL49       0.1146
    197 N           4.1274    5.7736    3.1242 N.3    50  UNL50      -0.3437
    198 H           3.6855    6.0085    4.0118 H      50  UNL50       0.1146
    199 H           5.0271    6.2520    3.1231 H      50  UNL50       0.1146
    200 H           4.3389    4.7778    3.1706 H      50  UNL50       0.1146
    201 N           4.1471    5.8578    6.9532 N.3    51  UNL51      -0.3437
    202 H           3.6892    4.9519    6.8633 H      51  UNL51       0.1146
    203 H           4.9411    5.7108    7.5747 H      51  UNL51       0.1146
    204 H           4.5421    6.0649    6.0370 H      51  UNL51       0.1146
    205 N           4.0296    5.7464   10.0806 N.3    52  UNL52      -0.3437
    206 H           3.4516    6.2829   10.7259 H      52  UNL52       0.1146
    207 H           4.6484    6.4200    9.6313 H      52  UNL52       0.1146
    208 H           4.6274    5.1594   10.6607 H      52  UNL52       0.1146
    209 N           4.1753    9.5367   -0.3653 N.3    53  UNL53      -0.3437
    210 H           3.6789    9.5743    0.5238 H      53  UNL53       0.1146
    211 H           4.8328   10.3151   -0.3530 H      53  UNL53       0.1146
    212 H           4.7418    8.6902   -0.3352 H      53  UNL53       0.1146
    213 N           4.2141    9.5298    3.1181 N.3    54  UNL54      -0.3437
    214 H           4.3333   10.4646    3.5061 H      54  UNL54       0.1146
    215 H           4.8818    9.4565    2.3519 H      54  UNL54       0.1146
    216 H           4.5388    8.8841    3.8364 H      54  UNL54       0.1146
    217 N           4.5393    9.8689    6.1973 N.3    55  UNL55      -0.3437
    218 H           4.7976    9.9580    7.1790 H      55  UNL55       0.1146
    219 H           4.6162    8.8773    5.9754 H      55  UNL55       0.1146
    220 H           3.5462   10.0918    6.1468 H      55  UNL55       0.1146
    221 N           4.0386    9.4534   10.1508 N.3    56  UNL56      -0.3437
    222 H           3.8663    9.7901    9.2046 H      56  UNL56       0.1146
    223 H           4.5513    8.5787   10.0486 H      56  UNL56       0.1146
    224 H           4.6915   10.1143   10.5695 H      56  UNL56       0.1146
    225 N           4.4027   13.3681   -0.3620 N.3    57  UNL57      -0.3437
    226 H           3.7929   13.4750    0.4474 H      57  UNL57       0.1146
    227 H           4.9822   14.2058   -0.3897 H      57  UNL57       0.1146
    228 H           5.0323   12.5984   -0.1395 H      57  UNL57       0.1146
    229 N           4.4319   13.1854    2.9874 N.3    58  UNL58      -0.3437
    230 H           4.6004   12.6314    3.8259 H      58  UNL58       0.1146
    231 H           3.4681   13.5094    3.0539 H      58  UNL58       0.1146
    232 H           5.0144   14.0165    3.0782 H      58  UNL58       0.1146
    233 N           4.2109   12.9577    6.4289 N.3    59  UNL59      -0.3437
    234 H           3.6372   13.3582    7.1698 H      59  UNL59       0.1146
    235 H           4.7065   13.7400    6.0036 H      59  UNL59       0.1146
    236 H           4.9212   12.3961    6.8962 H      59  UNL59       0.1146
    237 N           4.1675   13.3464   10.5225 N.3    60  UNL60      -0.3437
    238 H           3.7715   12.7937    9.7635 H      60  UNL60       0.1146
    239 H           4.8558   12.7476   10.9765 H      60  UNL60       0.1146
    240 H           4.6966   14.0954   10.0782 H      60  UNL60       0.1146
    241 N           4.2546   16.9564   -0.2191 N.3    61  UNL61      -0.3437
    242 H           3.5194   17.3547    0.3634 H      61  UNL61       0.1146
    243 H           4.9375   17.7001   -0.3569 H      61  UNL61       0.1146
    244 H           4.7175   16.2530    0.3548 H      61  UNL61       0.1146
    245 N           4.4645   17.1638    2.8318 N.3    62  UNL62      -0.3437
    246 H           4.9312   16.3626    3.2545 H      62  UNL62       0.1146
    247 H           3.5665   17.2482    3.3060 H      62  UNL62       0.1146
    248 H           5.0058   17.9818    3.1078 H      62  UNL62       0.1146
    249 N           4.3590   16.7685    6.3616 N.3    63  UNL63      -0.3437
    250 H           4.8291   17.6723    6.3809 H      63  UNL63       0.1146
    251 H           4.8544   16.1798    7.0298 H      63  UNL63       0.1146
    252 H           3.4332   16.9248    6.7575 H      63  UNL63       0.1146
    253 N           4.1459   17.0988   10.5280 N.3    64  UNL64      -0.3437
    254 H           4.7814   16.5295   11.0850 H      64  UNL64       0.1146
    255 H           4.7113   17.8518   10.1386 H      64  UNL64       0.1146
    256 H           3.8684   16.5185    9.7376 H      64  UNL64       0.1146
    257 N           4.1930   20.7047   -0.4813 N.3    65  UNL65      -0.3437
    258 H           3.7543   21.0820    0.3575 H      65  UNL65       0.1146
    259 H           4.8796   21.3979   -0.7753 H      65  UNL65       0.1146
    260 H           4.7271   19.8918   -0.1775 H      65  UNL65       0.1146
    261 N           4.1535   21.0047    2.9572 N.3    66  UNL66      -0.3437
    262 H           3.6125   21.2851    3.7739 H      66  UNL66       0.1146
    263 H           4.8797   21.7108    2.8454 H      66  UNL66       0.1146
    264 H           4.6349   20.1460    3.2204 H      66  UNL66       0.1146
    265 N           4.4238   21.2827    6.9963 N.3    67  UNL67      -0.3437
    266 H           4.9150   20.5022    7.4299 H      67  UNL67       0.1146
    267 H           4.6660   21.2522    6.0070 H      67  UNL67       0.1146
    268 H           3.4320   21.0549    7.0497 H      67  UNL67       0.1146
    269 N           4.1235   21.2958   10.2520 N.3    68  UNL68      -0.3437
    270 H           3.7275   20.5250   10.7882 H      68  UNL68       0.1146
    271 H           4.6960   21.8279   10.9058 H      68  UNL68       0.1146
    272 H           4.7726   20.8731    9.5900 H      68  UNL68       0.1146
    273 N           4.3464   24.7857   -0.1712 N.3    69  UNL69      -0.3437
    274 H           3.7851   23.9904    0.1300 H      69  UNL69       0.1146
    275 H           5.0915   24.8805    0.5175 H      69  UNL69       0.1146
    276 H           4.7996   24.4977   -1.0373 H      69  UNL69       0.1146
    277 N           4.4182   24.3178    3.0179 N.3    70  UNL70      -0.3437
    278 H           3.4405   24.2813    3.3027 H      70  UNL70       0.1146
    279 H           4.5607   25.2453    2.6208 H      70  UNL70       0.1146
    280 H           4.9627   24.2943    3.8789 H      70  UNL70       0.1146
    281 N           4.2178   24.3361    6.4328 N.3    71  UNL71      -0.3437
    282 H           3.5929   25.0960    6.6983 H      71  UNL71       0.1146
    283 H           5.0396   24.7782    6.0235 H      71  UNL71       0.1146
    284 H           4.5317   23.9128    7.3050 H      71  UNL71       0.1146
    285 N           4.1786   24.3955   10.4562 N.3    72  UNL72      -0.3437
    286 H           3.6692   24.8670    9.7102 H      72  UNL72       0.1146
    287 H           4.8838   23.8218    9.9958 H      72  UNL72       0.1146
    288 H           4.6895   25.1246   10.9519 H      72  UNL72       0.1146
    289 N           4.1210   28.2409   -0.3718 N.3    73  UNL73      -0.3437
    290 H           3.5645   28.3243    0.4778 H      73  UNL73       0.1146
    291 H           4.7256   29.0609   -0.3931 H      73  UNL73       0.1146
    292 H           4.7366   27.4419   -0.2269 H      73  UNL73       0.1146
    293 N           4.3578   27.8808    3.0170 N.3    74  UNL74      -0.3437
    294 H           4.3757   28.3911    3.8989 H      74  UNL74       0.1146
    295 H           3.3741   27.7804    2.7706 H      74  UNL74       0.1146
    296 H           4.7589   28.5081    2.3213 H      74  UNL74       0.1146
    297 N           4.4897   28.0301    6.5219 N.3    75  UNL75      -0.3437
    298 H           4.9321   28.9314    6.6960 H      75  UNL75       0.1146
    299 H           4.5643   27.5075    7.3935 H      75  UNL75       0.1146
    300 H           3.4974   28.2242    6.3949 H      75  UNL75       0.1146
    301 N           4.1769   28.2663   10.5699 N.3    76  UNL76      -0.3437
    302 H           3.7455   28.3654    9.6521 H      76  UNL76       0.1146
    303 H           4.8435   27.5001   10.4857 H      76  UNL76       0.1146
    304 H           4.7333   29.1082   10.7111 H      76  UNL76       0.1146
    305 N           4.2373   32.2126   -0.2000 N.3    77  UNL77      -0.3437
    306 H           3.5896   32.2515    0.5857 H      77  UNL77       0.1146
    307 H           5.0086   32.8335    0.0408 H      77  UNL77       0.1146
    308 H           4.6246   31.2701   -0.1983 H      77  UNL77       0.1146
    309 N           4.5552   31.7535    3.0305 N.3    78  UNL78      -0.3437
    310 H           4.5168   31.2899    3.9371 H      78  UNL78       0.1146
    311 H           3.5874   31.9239    2.7609 H      78  UNL78       0.1146
    312 H           4.9648   32.6708    3.2012 H      78  UNL78       0.1146
    313 N           4.1733   32.3741    6.3851 N.3    79  UNL79      -0.3437
    314 H           3.6561   31.8836    7.1133 H      79  UNL79       0.1146
    315 H           4.6747   33.1265    6.8550 H      79  UNL79       0.1146
    316 H           4.8857   31.7226    6.0591 H      79  UNL79       0.1146
    317 N           4.2271   31.8455   10.5509 N.3    80  UNL80      -0.3437
    318 H           3.8027   32.3464    9.7716 H      80  UNL80       0.1146
    319 H           4.9234   31.2251   10.1402 H      80  UNL80       0.1146
    320 H           4.7492   32.5415   11.0813 H      80  UNL80       0.1146
    321 N           4.4436   35.7834   -0.4297 N.3    81  UNL81      -0.3437
    322 H           3.6872   35.7999    0.2529 H      81  UNL81       0.1146
    323 H           4.9729   36.6418   -0.2833 H      81  UNL81       0.1146
    324 H           5.0596   35.0222   -0.1478 H      81  UNL81       0.1146
    325 N           4.5525   35.6545    2.9999 N.3    82  UNL82      -0.3437
    326 H           4.7196   35.3437    3.9558 H      82  UNL82       0.1146
    327 H           3.5606   35.8824    2.9480 H      82  UNL82       0.1146
    328 H           5.0494   36.5386    2.9010 H      82  UNL82       0.1146
    329 N           4.1850   35.7828    6.4587 N.3    83  UNL83      -0.3437
    330 H           3.6981   36.5851    6.8558 H      83  UNL83       0.1146
    331 H           5.0021   36.1589    5.9799 H      83  UNL83       0.1146
    332 H           4.5437   35.2517    7.2510 H      83  UNL83       0.1146
    333 N           4.2080   36.0704   10.3698 N.3    84  UNL84      -0.3437
    334 H           3.5559   35.2988   10.2363 H      84  UNL84       0.1146
    335 H           4.9014   35.7395   11.0392 H      84  UNL84       0.1146
    336 H           4.7012   36.1776    9.4845 H      84  UNL84       0.1146
    337 N           4.5210   39.6739   -0.6345 N.3    85  UNL85      -0.3437
    338 H           4.6305   38.8403   -1.2103 H      85  UNL85       0.1146
    339 H           3.5188   39.8514   -0.5849 H      85  UNL85       0.1146
    340 H           4.8055   39.4048    0.3062 H      85  UNL85       0.1146
    341 N           4.1877   39.3465    3.2479 N.3    86  UNL86      -0.3437
    342 H           3.6855   40.2196    3.0939 H      86  UNL86       0.1146
    343 H           4.8788   39.2845    2.5016 H      86  UNL86       0.1146
    344 H           4.7160   39.4746    4.1098 H      86  UNL86       0.1146
    345 N           4.1770   39.4193    6.6800 N.3    87  UNL87      -0.3437
    346 H           3.8792   40.1440    6.0285 H      87  UNL87       0.1146
    347 H           4.9556   38.9399    6.2302 H      87  UNL87       0.1146
    348 H           4.5734   39.9079    7.4816 H      87  UNL87       0.1146
    349 N           4.5440   39.6522   10.1114 N.3    88  UNL88      -0.3437
    350 H           4.8677   39.8200   11.0630 H      88  UNL88       0.1146
    351 H           4.1935   38.6954   10.0986 H      88  UNL88       0.1146
    352 H           3.7299   40.2512    9.9818 H      88  UNL88       0.1146
    353 N           7.5915    2.1900   -0.5318 N.3    89  UNL89      -0.3437
    354 H           7.7598    2.6820    0.3445 H      89  UNL89       0.1146
    355 H           8.4368    1.6523   -0.7188 H      89  UNL89       0.1146
    356 H           6.8619    1.5065   -0.3345 H      89  UNL89       0.1146
    357 N           7.6089    1.8252    2.8479 N.3    90  UNL90      -0.3437
    358 H           7.1140    2.2734    3.6178 H      90  UNL90       0.1146
    359 H           8.2531    2.5253    2.4828 H      90  UNL90       0.1146
    360 H           8.1897    1.1023    3.2703 H      90  UNL90       0.1146
    361 N           7.6096    2.2652    6.6108 N.3    91  UNL91      -0.3437
    362 H           7.0729    2.7850    5.9179 H      91  UNL91       0.1146
    363 H           8.2953    1.7236    6.0864 H      91  UNL91       0.1146
    364 H           8.1410    2.9601    7.1335 H      91  UNL91       0.1146
    365 N           7.7798    2.6835    9.7179 N.3    92  UNL92      -0.3437
    366 H           8.3591    2.5689   10.5484 H      92  UNL92       0.1146
    367 H           7.8401    1.8023    9.2097 H      92  UNL92       0.1146
    368 H           6.8195    2.7497   10.0522 H      92  UNL92       0.1146
    369 N           7.5120    6.0807   -0.5445 N.3    93  UNL93      -0.3437
    370 H           7.7051    6.5063    0.3610 H      93  UNL93       0.1146
    371 H           8.3530    5.5635   -0.7968 H      93  UNL93       0.1146
    372 H           6.7910    5.3802   -0.3776 H      93  UNL93       0.1146
    373 N           7.8181    6.0879    2.9812 N.3    94  UNL94      -0.3437
    374 H           8.3536    6.7116    3.5833 H      94  UNL94       0.1146
    375 H           8.4719    5.7462    2.2783 H      94  UNL94       0.1146
    376 H           7.5768    5.2817    3.5557 H      94  UNL94       0.1146
    377 N           7.7164    5.8019    6.1496 N.3    95  UNL95      -0.3437
    378 H           8.1178    6.0109    7.0626 H      95  UNL95       0.1146
    379 H           7.9144    4.8178    5.9744 H      95  UNL95       0.1146
    380 H           6.7061    5.8688    6.2650 H      95  UNL95       0.1146
    381 N           7.1493    5.8283   10.2882 N.3    96  UNL96      -0.3437
    382 H           7.6132    5.7354    9.3856 H      96  UNL96       0.1146
    383 H           6.8075    4.8981   10.5254 H      96  UNL96       0.1146
    384 H           7.8848    6.0375   10.9618 H      96  UNL96       0.1146
    385 N           7.4073    9.6858   -0.5040 N.3    97  UNL97      -0.3437
    386 H           8.3629    9.7112   -0.8569 H      97  UNL97       0.1146
    387 H           7.1783    8.7001   -0.3842 H      97  UNL97       0.1146
    388 H           7.4437   10.0817    0.4342 H      97  UNL97       0.1146
    389 N           7.5361    9.2015    3.2198 N.3    98  UNL98      -0.3437
    390 H           7.0396    9.8205    2.5805 H      98  UNL98       0.1146
    391 H           8.2183    8.7003    2.6525 H      98  UNL98       0.1146
    392 H           8.0749    9.8080    3.8363 H      98  UNL98       0.1146
    393 N           7.5678    9.1299    6.3238 N.3    99  UNL99      -0.3437
    394 H           7.0557    9.6860    7.0071 H      99  UNL99       0.1146
    395 H           8.3575    9.7032    6.0302 H      99  UNL99       0.1146
    396 H           7.9660    8.3471    6.8405 H      99  UNL99       0.1146
    397 N           7.7399    9.6502    9.8158 N.3   100  UNL100     -0.3437
    398 H           6.7975    9.5982   10.1997 H     100  UNL100      0.1146
    399 H           7.8279   10.5819    9.4125 H     100  UNL100      0.1146
    400 H           8.3707    9.6298   10.6158 H     100  UNL100      0.1146
    401 N           7.4771   13.2915   -0.5064 N.3   101  UNL101     -0.3437
    402 H           6.9760   13.6085    0.3223 H     101  UNL101      0.1146
    403 H           8.3640   13.7932   -0.5074 H     101  UNL101      0.1146
    404 H           7.7079   12.3134   -0.3381 H     101  UNL101      0.1146
    405 N           7.6120   13.3590    2.8785 N.3   102  UNL102     -0.3437
    406 H           7.0419   13.4510    3.7180 H     102  UNL102      0.1146
    407 H           8.1952   14.1939    2.8421 H     102  UNL102      0.1146
    408 H           8.2463   12.5809    3.0536 H     102  UNL102      0.1146
    409 N           7.6056   13.5623    6.8539 N.3   103  UNL103     -0.3437
    410 H           6.8373   13.2647    6.2544 H     103  UNL103      0.1146
    411 H           8.0765   12.7090    7.1514 H     103  UNL103      0.1146
    412 H           8.2635   14.0488    6.2466 H     103  UNL103      0.1146
    413 N           7.7848   13.5303   10.0235 N.3   104  UNL104     -0.3437
    414 H           8.3134   13.2438   10.8462 H     104  UNL104      0.1146
    415 H           7.8962   12.7802    9.3427 H     104  UNL104      0.1146
    416 H           6.8042   13.5149   10.3002 H     104  UNL104      0.1146
    417 N           7.4817   16.9571   -0.4896 N.3   105  UNL105     -0.3437
    418 H           6.8426   16.8186    0.2920 H     105  UNL105      0.1146
    419 H           8.0257   17.7886   -0.2636 H     105  UNL105      0.1146
    420 H           8.1360   16.1765   -0.4592 H     105  UNL105      0.1146
    421 N           7.5942   17.1541    2.8178 N.3   106  UNL106     -0.3437
    422 H           6.9879   17.0813    3.6335 H     106  UNL106      0.1146
    423 H           8.1441   18.0015    2.9512 H     106  UNL106      0.1146
    424 H           8.2520   16.3788    2.8866 H     106  UNL106      0.1146
    425 N           7.4437   16.6146    6.6660 N.3   107  UNL107     -0.3437
    426 H           6.8255   17.1983    7.2278 H     107  UNL107      0.1146
    427 H           7.5585   17.1007    5.7778 H     107  UNL107      0.1146
    428 H           8.3536   16.6474    7.1237 H     107  UNL107      0.1146
    429 N           7.8077   17.2848   10.2294 N.3   108  UNL108     -0.3437
    430 H           8.3284   16.5399   10.6903 H     108  UNL108      0.1146
    431 H           7.8798   17.1008    9.2297 H     108  UNL108      0.1146
    432 H           6.8295   17.1356   10.4725 H     108  UNL108      0.1146
    433 N           7.4455   20.7855   -0.3894 N.3   109  UNL109     -0.3437
    434 H           7.6704   21.5416    0.2555 H     109  UNL109      0.1146
    435 H           8.1386   20.8365   -1.1347 H     109  UNL109      0.1146
    436 H           7.6376   19.9205    0.1139 H     109  UNL109      0.1146
    437 N           7.7120   20.9863    3.4140 N.3   110  UNL110     -0.3437
    438 H           8.2451   20.1242    3.5185 H     110  UNL110      0.1146
    439 H           7.7933   21.2497    2.4330 H     110  UNL110      0.1146
    440 H           6.7356   20.7318    3.5564 H     110  UNL110      0.1146
    441 N           7.4847   20.6771    6.7889 N.3   111  UNL111     -0.3437
    442 H           8.1546   20.1216    7.3190 H     111  UNL111      0.1146
    443 H           7.1889   21.4286    7.4102 H     111  UNL111      0.1146
    444 H           8.0172   21.1226    6.0429 H     111  UNL111      0.1146
    445 N           7.3597   20.9810   10.1537 N.3   112  UNL112     -0.3437
    446 H           7.6991   21.7638   10.7109 H     112  UNL112      0.1146
    447 H           8.0133   20.8842    9.3779 H     112  UNL112      0.1146
    448 H           7.4841   20.1505   10.7310 H     112  UNL112      0.1146
    449 N           7.5620   24.7675   -0.4268 N.3   113  UNL113     -0.3437
    450 H           7.7851   24.9145    0.5565 H     113  UNL113      0.1146
    451 H           8.4038   24.3804   -0.8511 H     113  UNL113      0.1146
    452 H           6.8680   24.0216   -0.4489 H     113  UNL113      0.1146
    453 N           7.5429   24.3922    3.1877 N.3   114  UNL114     -0.3437
    454 H           7.5630   24.2581    4.1976 H     114  UNL114      0.1146
    455 H           8.2242   25.1231    2.9878 H     114  UNL114      0.1146
    456 H           7.9216   23.5371    2.7832 H     114  UNL114      0.1146
    457 N           7.5873   24.7609    6.8738 N.3   115  UNL115     -0.3437
    458 H           8.2825   24.2651    7.4298 H     115  UNL115      0.1146
    459 H           8.1000   25.2034    6.1124 H     115  UNL115      0.1146
    460 H           7.0083   24.0421    6.4419 H     115  UNL115      0.1146
    461 N           7.7233   24.7137    9.9816 N.3   116  UNL116     -0.3437
    462 H           8.3069   24.7763   10.8146 H     116  UNL116      0.1146
    463 H           7.7110   23.7287    9.7206 H     116  UNL116      0.1146
    464 H           6.7761   24.9356   10.2849 H     116  UNL116      0.1146
    465 N           7.2329   28.2963   -0.0200 N.3   117  UNL117     -0.3437
    466 H           8.1705   27.9436   -0.2071 H     117  UNL117      0.1146
    467 H           6.7824   27.5976    0.5693 H     117  UNL117      0.1146
    468 H           7.3549   29.1212    0.5657 H     117  UNL117      0.1146
    469 N           7.8457   28.1016    2.9557 N.3   118  UNL118     -0.3437
    470 H           7.6712   27.6632    3.8589 H     118  UNL118      0.1146
    471 H           6.9361   28.4046    2.6102 H     118  UNL118      0.1146
    472 H           8.3690   28.9534    3.1533 H     118  UNL118      0.1146
    473 N           7.5819   28.3289    6.3938 N.3   119  UNL119     -0.3437
    474 H           7.0266   28.5168    7.2274 H     119  UNL119      0.1146
    475 H           8.4178   28.9057    6.4773 H     119  UNL119      0.1146
    476 H           7.8972   27.3636    6.4781 H     119  UNL119      0.1146
    477 N           7.7506   28.3422    9.9580 N.3   120  UNL120     -0.3437
    478 H           8.3858   28.5505   10.7270 H     120  UNL120      0.1146
    479 H           7.8682   27.3500    9.7574 H     120  UNL120      0.1146
    480 H           6.8096   28.4426   10.3359 H     120  UNL120      0.1146
    481 N           7.5286   32.2316   -0.5162 N.3   121  UNL121     -0.3437
    482 H           7.8031   32.7450    0.3201 H     121  UNL121      0.1146
    483 H           8.3309   31.6563   -0.7687 H     121  UNL121      0.1146
    484 H           6.7999   31.5833   -0.2212 H     121  UNL121      0.1146
    485 N           7.5987   32.2307    2.9074 N.3   122  UNL122     -0.3437
    486 H           7.0508   32.2586    3.7661 H     122  UNL122      0.1146
    487 H           8.2735   32.9908    2.9799 H     122  UNL122      0.1146
    488 H           8.1411   31.3689    2.9482 H     122  UNL122      0.1146
    489 N           7.4773   32.2113    6.3877 N.3   123  UNL123     -0.3437
    490 H           6.7317   32.3743    7.0629 H     123  UNL123      0.1146
    491 H           8.2188   32.8692    6.6237 H     123  UNL123      0.1146
    492 H           7.8472   31.2849    6.5960 H     123  UNL123      0.1146
    493 N           7.8365   32.3325   10.3027 N.3   124  UNL124     -0.3437
    494 H           8.3406   31.6122   10.8178 H     124  UNL124      0.1146
    495 H           7.9254   32.0876    9.3176 H     124  UNL124      0.1146
    496 H           6.8523   32.2074   10.5354 H     124  UNL124      0.1146
    497 N           7.5398   35.7847   -0.5724 N.3   125  UNL125     -0.3437
    498 H           6.9937   35.9869    0.2637 H     125  UNL125      0.1146
    499 H           8.3387   36.4168   -0.5458 H     125  UNL125      0.1146
    500 H           7.9185   34.8479   -0.4408 H     125  UNL125      0.1146
    501 N           7.6381   35.9483    2.9777 N.3   126  UNL126     -0.3437
    502 H           7.0330   36.1559    3.7708 H     126  UNL126      0.1146
    503 H           8.2569   36.7518    2.8786 H     126  UNL126      0.1146
    504 H           8.2299   35.1725    3.2714 H     126  UNL126      0.1146
    505 N           7.5089   35.9931    6.8231 N.3   127  UNL127     -0.3437
    506 H           7.5534   36.4080    5.8935 H     127  UNL127      0.1146
    507 H           7.6421   34.9916    6.6905 H     127  UNL127      0.1146
    508 H           8.3363   36.3233    7.3179 H     127  UNL127      0.1146
    509 N           7.8277   35.9693    9.9066 N.3   128  UNL128     -0.3437
    510 H           8.3040   36.5109   10.6264 H     128  UNL128      0.1146
    511 H           7.9583   34.9906   10.1589 H     128  UNL128      0.1146
    512 H           6.8335   36.1593   10.0238 H     128  UNL128      0.1146
    513 N           7.5455   40.0381   -0.2096 N.3   129  UNL129     -0.3437
    514 H           7.0046   39.3542    0.3177 H     129  UNL129      0.1146
    515 H           8.2046   40.4455    0.4521 H     129  UNL129      0.1146
    516 H           8.1063   39.5029   -0.8711 H     129  UNL129      0.1146
    517 N           7.7454   39.8981    3.0206 N.3   130  UNL130     -0.3437
    518 H           8.3324   40.0527    3.8391 H     130  UNL130      0.1146
    519 H           7.8590   38.9157    2.7749 H     130  UNL130      0.1146
    520 H           6.7835   39.9977    3.3420 H     130  UNL130      0.1146
    521 N           7.7273   39.9619    6.9054 N.3   131  UNL131     -0.3437
    522 H           8.2781   39.3345    7.4895 H     131  UNL131      0.1146
    523 H           7.8283   39.6186    5.9513 H     131  UNL131      0.1146
    524 H           6.7539   39.8007    7.1601 H     131  UNL131      0.1146
    525 N           7.6485   39.9363    9.9928 N.3   132  UNL132     -0.3437
    526 H           7.0816   39.8838   10.8379 H     132  UNL132      0.1146
    527 H           8.3003   40.7058   10.1391 H     132  UNL132      0.1146
    528 H           8.2134   39.0883    9.9803 H     132  UNL132      0.1146
@<TRIPOS>BOND
     1     1     2    1
     2     1     3    1
     3     1     4    1
     4     5     6    1
     5     5     7    1
     6     5     8    1
     7     9    10    1
     8     9    11    1
     9     9    12    1
    10    13    14    1
    11    13    15    1
    12    13    16    1
    13    17    18    1
    14    17    19    1
    15    17    20    1
    16    21    22    1
    17    21    23    1
    18    21    24    1
    19    25    26    1
    20    25    27    1
    21    25    28    1
    22    29    30    1
    23    29    31    1
    24    29    32    1
    25    33    34    1
    26    33    35    1
    27    33    36    1
    28    37    38    1
    29    37    39    1
    30    37    40    1
    31    41    42    1
    32    41    43    1
    33    41    44    1
    34    45    46    1
    35    45    47    1
    36    45    48    1
    37    49    50    1
    38    49    51    1
    39    49    52    1
    40    53    54    1
    41    53    55    1
    42    53    56    1
    43    57    58    1
    44    57    59    1
    45    57    60    1
    46    61    62    1
    47    61    63    1
    48    61    64    1
    49    65    66    1
    50    65    67    1
    51    65    68    1
    52    69    70    1
    53    69    71    1
    54    69    72    1
    55    73    74    1
    56    73    75    1
    57    73    76    1
    58    77    78    1
    59    77    79    1
    60    77    80    1
    61    81    82    1
    62    81    83    1
    63    81    84    1
    64    85    86    1
    65    85    87    1
    66    85    88    1
    67    89    90    1
    68    89    91    1
    69    89    92    1
    70    93    94    1
    71    93    95    1
    72    93    96    1
    73    97    98    1
    74    97    99    1
    75    97   100    1
    76   101   102    1
    77   101   103    1
    78   101   104    1
    79   105   106    1
    80   105   107    1
    81   105   108    1
    82   109   110    1
    83   109   111    1
    84   109   112    1
    85   113   114    1
    86   113   115    1
    87   113   116    1
    88   117   118    1
    89   117   119    1
    90   117   120    1
    91   121   122    1
    92   121   123    1
    93   121   124    1
    94   125   126    1
    95   125   127    1
    96   125   128    1
    97   129   130    1
    98   129   131    1
    99   129   132    1
   100   133   134    1
   101   133   135    1
   102   133   136    1
   103   137   138    1
   104   137   139    1
   105   137   140    1
   106   141   142    1
   107   141   143    1
   108   141   144    1
   109   145   146    1
   110   145   147    1
   111   145   148    1
   112   149   150    1
   113   149   151    1
   114   149   152    1
   115   153   154    1
   116   153   155    1
   117   153   156    1
   118   157   158    1
   119   157   159    1
   120   157   160    1
   121   161   162    1
   122   161   163    1
   123   161   164    1
   124   165   166    1
   125   165   167    1
   126   165   168    1
   127   169   170    1
   128   169   171    1
   129   169   172    1
   130   173   174    1
   131   173   175    1
   132   173   176    1
   133   177   178    1
   134   177   179    1
   135   177   180    1
   136   181   182    1
   137   181   183    1
   138   181   184    1
   139   185   186    1
   140   185   187    1
   141   185   188    1
   142   189   190    1
   143   189   191    1
   144   189   192    1
   145   193   194    1
   146   193   195    1
   147   193   196    1
   148   197   198    1
   149   197   199    1
   150   197   200    1
   151   201   202    1
   152   201   203    1
   153   201   204    1
   154   205   206    1
   155   205   207    1
   156   205   208    1
   157   209   210    1
   158   209   211    1
   159   209   212    1
   160   213   214    1
   161   213   215    1
   162   213   216    1
   163   217   218    1
   164   217   219    1
   165   217   220    1
   166   221   222    1
   167   221   223    1
   168   221   224    1
   169   225   226    1
   170   225   227    1
   171   225   228    1
   172   229   230    1
   173   229   231    1
   174   229   232    1
   175   233   234    1
   176   233   235    1
   177   233   236    1
   178   237   238    1
   179   237   239    1
   180   237   240    1
   181   241   242    1
   182   241   243    1
   183   241   244    1
   184   245   246    1
   185   245   247    1
   186   245   248    1
   187   249   250    1
   188   249   251    1
   189   249   252    1
   190   253   254    1
   191   253   255    1
   192   253   256    1
   193   257   258    1
   194   257   259    1
   195   257   260    1
   196   261   262    1
   197   261   263    1
   198   261   264    1
   199   265   266    1
   200   265   267    1
   201   265   268    1
   202   269   270    1
   203   269   271    1
   204   269   272    1
   205   273   274    1
   206   273   275    1
   207   273   276    1
   208   277   278    1
   209   277   279    1
   210   277   280    1
   211   281   282    1
   212   281   283    1
   213   281   284    1
   214   285   286    1
   215   285   287    1
   216   285   288    1
   217   289   290    1
   218   289   291    1
   219   289   292    1
   220   293   294    1
   221   293   295    1
   222   293   296    1
   223   297   298    1
   224   297   299    1
   225   297   300    1
   226   301   302    1
   227   301   303    1
   228   301   304    1
   229   305   306    1
   230   305   307    1
   231   305   308    1
   232   309   310    1
   233   309   311    1
   234   309   312    1
   235   313   314    1
   236   313   315    1
   237   313   316    1
   238   317   318    1
   239   317   319    1
   240   317   320    1
   241   321   322    1
   242   321   323    1
   243   321   324    1
   244   325   326    1
   245   325   327    1
   246   325   328    1
   247   329   330    1
   248   329   331    1
   249   329   332    1
   250   333   334    1
   251   333   335    1
   252   333   336    1
   253   337   338    1
   254   337   339    1
   255   337   340    1
   256   341   342    1
   257   341   343    1
   258   341   344    1
   259   345   346    1
   260   345   347    1
   261   345   348    1
   262   349   350    1
   263   349   351    1
   264   349   352    1
   265   353   354    1
   266   353   355    1
   267   353   356    1
   268   357   358    1
   269   357   359    1
   270   357   360    1
   271   361   362    1
   272   361   363    1
   273   361   364    1
   274   365   366    1
   275   365   367    1
   276   365   368    1
   277   369   370    1
   278   369   371    1
   279   369   372    1
   280   373   374    1
   281   373   375    1
   282   373   376    1
   283   377   378    1
   284   377   379    1
   285   377   380    1
   286   381   382    1
   287   381   383    1
   288   381   384    1
   289   385   386    1
   290   385   387    1
   291   385   388    1
   292   389   390    1
   293   389   391    1
   294   389   392    1
   295   393   394    1
   296   393   395    1
   297   393   396    1
   298   397   398    1
   299   397   399    1
   300   397   400    1
   301   401   402    1
   302   401   403    1
   303   401   404    1
   304   405   406    1
   305   405   407    1
   306   405   408    1
   307   409   410    1
   308   409   411    1
   309   409   412    1
   310   413   414    1
   311   413   415    1
   312   413   416    1
   313   417   418    1
   314   417   419    1
   315   417   420    1
   316   421   422    1
   317   421   423    1
   318   421   424    1
   319   425   426    1
   320   425   427    1
   321   425   428    1
   322   429   430    1
   323   429   431    1
   324   429   432    1
   325   433   434    1
   326   433   435    1
   327   433   436    1
   328   437   438    1
   329   437   439    1
   330   437   440    1
   331   441   442    1
   332   441   443    1
   333   441   444    1
   334   445   446    1
   335   445   447    1
   336   445   448    1
   337   449   450    1
   338   449   451    1
   339   449   452    1
   340   453   454    1
   341   453   455    1
   342   453   456    1
   343   457   458    1
   344   457   459    1
   345   457   460    1
   346   461   462    1
   347   461   463    1
   348   461   464    1
   349   465   466    1
   350   465   467    1
   351   465   468    1
   352   469   470    1
   353   469   471    1
   354   469   472    1
   355   473   474    1
   356   473   475    1
   357   473   476    1
   358   477   478    1
   359   477   479    1
   360   477   480    1
   361   481   482    1
   362   481   483    1
   363   481   484    1
   364   485   486    1
   365   485   487    1
   366   485   488    1
   367   489   490    1
   368   489   491    1
   369   489   492    1
   370   493   494    1
   371   493   495    1
   372   493   496    1
   373   497   498    1
   374   497   499    1
   375   497   500    1
   376   501   502    1
   377   501   503    1
   378   501   504    1
   379   505   506    1
   380   505   507    1
   381   505   508    1
   382   509   510    1
   383   509   511    1
   384   509   512    1
   385   513   514    1
   386   513   515    1
   387   513   516    1
   388   517   518    1
   389   517   519    1
   390   517   520    1
   391   521   522    1
   392   521   523    1
   393   521   524    1
   394   525   526    1
   395   525   527    1
   396   525   528    1
