@<TRIPOS>MOLECULE
*****
 9008 6756 0 0 0
SMALL
GASTEIGER

@<TRIPOS>ATOM
      1 N          -0.8257    0.9003   -0.3791 N.3     1  UNL1       -0.3437
      2 H          -1.3539    1.4063    0.3303 H       1  UNL1        0.1146
      3 H          -0.0652    1.5188   -0.6576 H       1  UNL1        0.1146
      4 H          -0.3878    0.1163    0.1026 H       1  UNL1        0.1146
      5 N          -0.5664    0.8497    2.2438 N.3     2  UNL2       -0.3437
      6 H          -1.1368    0.2481    2.8363 H       2  UNL2        0.1146
      7 H          -1.1339    1.6738    2.0510 H       2  UNL2        0.1146
      8 H           0.2045    1.1701    2.8283 H       2  UNL2        0.1146
      9 N          -0.8740    1.0507    7.9626 N.3     3  UNL3       -0.3437
     10 H          -1.2255    0.6588    7.0902 H       3  UNL3        0.1146
     11 H          -0.2141    0.3676    8.3317 H       3  UNL3        0.1146
     12 H          -0.3191    1.8645    7.7015 H       3  UNL3        0.1146
     13 N          -0.8730    0.8568   10.2552 N.3     4  UNL4       -0.3437
     14 H          -1.2317    1.4349   11.0138 H       4  UNL4        0.1146
     15 H          -0.2836    1.4676    9.6912 H       4  UNL4        0.1146
     16 H          -0.2443    0.1824   10.6891 H       4  UNL4        0.1146
     17 N          -0.9259    1.0244   13.1721 N.3     5  UNL5       -0.3437
     18 H          -0.9178    0.3101   12.4455 H       5  UNL5        0.1146
     19 H          -0.2286    0.7364   13.8570 H       5  UNL5        0.1146
     20 H          -0.5603    1.8708   12.7380 H       5  UNL5        0.1146
     21 N          -0.8642    1.0681   15.8891 N.3     6  UNL6       -0.3437
     22 H          -1.2579    0.5953   15.0768 H       6  UNL6        0.1146
     23 H          -0.1817    0.4237   16.2858 H       6  UNL6        0.1146
     24 H          -0.3287    1.8545   15.5242 H       6  UNL6        0.1146
     25 N          -0.8279    0.8708   18.1217 N.3     7  UNL7       -0.3437
     26 H          -1.3653    1.3772   18.8239 H       7  UNL7        0.1146
     27 H          -0.1394    1.5316   17.7644 H       7  UNL7        0.1146
     28 H          -0.3000    0.1621   18.6292 H       7  UNL7        0.1146
     29 N          -0.8847    0.8712   20.8239 N.3     8  UNL8       -0.3437
     30 H          -1.1849    1.4010   21.6409 H       8  UNL8        0.1146
     31 H          -0.3192    1.5104   20.2669 H       8  UNL8        0.1146
     32 H          -0.2438    0.1590   21.1709 H       8  UNL8        0.1146
     33 N          -0.9344    1.0078   26.3601 N.3     9  UNL9       -0.3437
     34 H          -0.3225    0.4847   26.9849 H       9  UNL9        0.1146
     35 H          -0.4893    1.9145   26.2252 H       9  UNL9        0.1146
     36 H          -0.8864    0.5346   25.4589 H       9  UNL9        0.1146
     37 N          -0.8249    1.0769   29.1244 N.3    10  UNL10      -0.3437
     38 H          -1.3786    0.7569   28.3311 H      10  UNL10       0.1146
     39 H          -0.2151    0.2994   29.3732 H      10  UNL10       0.1146
     40 H          -0.2140    1.8085   28.7637 H      10  UNL10       0.1146
     41 N          -0.9200    0.9776   35.3167 N.3    11  UNL11      -0.3437
     42 H          -0.1606    0.6270   35.8986 H      11  UNL11       0.1146
     43 H          -0.6486    1.9196   35.0382 H      11  UNL11       0.1146
     44 H          -0.9034    0.4175   34.4656 H      11  UNL11       0.1146
     45 N          -0.7315    3.6288    0.7154 N.3    12  UNL12      -0.3437
     46 H          -1.5429    4.0445    0.2603 H      12  UNL12       0.1146
     47 H          -0.2185    3.1398   -0.0168 H      12  UNL12       0.1146
     48 H          -0.1397    4.4077    1.0006 H      12  UNL12       0.1146
     49 N          -0.8279    3.8712    2.7549 N.3    13  UNL13      -0.3437
     50 H          -0.3645    4.6886    3.1492 H      13  UNL13       0.1146
     51 H          -0.0864    3.2105    2.5271 H      13  UNL13       0.1146
     52 H          -1.3538    3.4505    3.5196 H      13  UNL13       0.1146
     53 N          -0.9152    3.7203    5.6527 N.3    14  UNL14      -0.3437
     54 H          -1.0050    4.5538    6.2321 H      14  UNL14       0.1146
     55 H          -0.2103    3.9408    4.9507 H      14  UNL14       0.1146
     56 H          -0.5021    3.0059    6.2505 H      14  UNL14       0.1146
     57 N          -0.8261    3.6178    8.2572 N.3    15  UNL15      -0.3437
     58 H          -1.3735    4.3193    8.7539 H      15  UNL15       0.1146
     59 H          -0.1703    4.1350    7.6734 H      15  UNL15       0.1146
     60 H          -0.2626    3.1486    8.9648 H      15  UNL15       0.1146
     61 N          -0.8362    3.6769   10.8552 N.3    16  UNL16      -0.3437
     62 H          -1.3480    4.1944   11.5683 H      16  UNL16       0.1146
     63 H          -0.1921    4.3436   10.4322 H      16  UNL16       0.1146
     64 H          -0.2563    3.0058   11.3569 H      16  UNL16       0.1146
     65 N          -0.9091    3.6979   13.5805 N.3    17  UNL17      -0.3437
     66 H          -1.0620    4.5086   14.1787 H      17  UNL17       0.1146
     67 H          -0.2493    3.9978   12.8642 H      17  UNL17       0.1146
     68 H          -0.4122    3.0165   14.1525 H      17  UNL17       0.1146
     69 N          -0.7654    3.7567   16.0637 N.3    18  UNL18      -0.3437
     70 H           0.2531    3.7760   16.0869 H      18  UNL18       0.1146
     71 H          -1.0481    3.0423   16.7331 H      18  UNL18       0.1146
     72 H          -1.0722    4.6459   16.4555 H      18  UNL18       0.1146
     73 N          -0.8052    3.6934   21.3857 N.3    19  UNL19      -0.3437
     74 H          -1.4205    3.9650   22.1512 H      19  UNL19       0.1146
     75 H          -0.2706    4.5270   21.1458 H      19  UNL19       0.1146
     76 H          -0.1362    3.0354   21.7831 H      19  UNL19       0.1146
     77 N          -0.8043    3.6577   24.0469 N.3    20  UNL20      -0.3437
     78 H          -1.4180    4.0087   24.7807 H      20  UNL20       0.1146
     79 H          -0.3060    4.4696   23.6852 H      20  UNL20       0.1146
     80 H          -0.1043    3.0848   24.5163 H      20  UNL20       0.1146
     81 N          -0.8160    3.6243   26.7257 N.3    21  UNL21      -0.3437
     82 H          -1.3982    4.1845   27.3466 H      21  UNL21       0.1146
     83 H          -0.2552    4.2873   26.1924 H      21  UNL21       0.1146
     84 H          -0.1632    3.1246   27.3277 H      21  UNL21       0.1146
     85 N          -0.8717    3.6268   29.4392 N.3    22  UNL22      -0.3437
     86 H          -1.2189    4.3336   30.0859 H      22  UNL22       0.1146
     87 H          -0.4024    4.1362   28.6917 H      22  UNL22       0.1146
     88 H          -0.1396    3.1242   29.9390 H      22  UNL22       0.1146
     89 N          -0.8311    3.6248   32.0219 N.3    23  UNL23      -0.3437
     90 H          -1.3607    4.2351   32.6428 H      23  UNL23       0.1146
     91 H          -0.2663    4.2400   31.4380 H      23  UNL23       0.1146
     92 H          -0.1745    3.1209   32.6163 H      23  UNL23       0.1146
     93 N          -0.8949    6.4976   -0.0282 N.3    24  UNL24      -0.3437
     94 H          -1.1413    7.1823   -0.7414 H      24  UNL24       0.1146
     95 H          -0.2783    5.8266   -0.4842 H      24  UNL24       0.1146
     96 H          -0.3180    6.9934    0.6498 H      24  UNL24       0.1146
     97 N          -0.4786    6.5110    2.6952 N.3    25  UNL25      -0.3437
     98 H          -0.5837    5.9043    1.8833 H      25  UNL25       0.1146
     99 H          -0.1491    7.4060    2.3363 H      25  UNL25       0.1146
    100 H          -1.4211    6.6785    3.0446 H      25  UNL25       0.1146
    101 N          -0.8779    6.7786    5.2552 N.3    26  UNL26      -0.3437
    102 H          -0.2175    6.4110    5.9387 H      26  UNL26       0.1146
    103 H          -0.3269    7.3360    4.6039 H      26  UNL26       0.1146
    104 H          -1.2102    5.9743    4.7250 H      26  UNL26       0.1146
    105 N          -0.8040    6.7333    8.0047 N.3    27  UNL27      -0.3437
    106 H          -1.4230    6.3113    7.3140 H      27  UNL27       0.1146
    107 H          -0.1336    6.0096    8.2604 H      27  UNL27       0.1146
    108 H          -0.2719    7.4457    7.5070 H      27  UNL27       0.1146
    109 N          -0.8613    6.7680   10.5724 N.3    28  UNL28      -0.3437
    110 H          -1.2685    6.0690    9.9528 H      28  UNL28       0.1146
    111 H          -0.1832    6.2716   11.1488 H      28  UNL28       0.1146
    112 H          -0.3196    7.3912    9.9753 H      28  UNL28       0.1146
    113 N          -0.8660    6.5151   12.8740 N.3    29  UNL29      -0.3437
    114 H          -1.2498    6.8863   13.7419 H      29  UNL29       0.1146
    115 H          -0.3429    7.2792   12.4487 H      29  UNL29       0.1146
    116 H          -0.1738    5.8193   13.1480 H      29  UNL29       0.1146
    117 N          -0.8768    6.7280   15.8642 N.3    30  UNL30      -0.3437
    118 H          -1.2040    6.0717   15.1567 H      30  UNL30       0.1146
    119 H          -0.1622    6.2338   16.3967 H      30  UNL30       0.1146
    120 H          -0.3896    7.4664   15.3584 H      30  UNL30       0.1146
    121 N          -0.8244    6.5415   18.1051 N.3    31  UNL31      -0.3437
    122 H          -1.3749    6.7332   18.9409 H      31  UNL31       0.1146
    123 H          -0.2920    7.3901   17.9186 H      31  UNL31       0.1146
    124 H          -0.1414    5.8350   18.3746 H      31  UNL31       0.1146
    125 N          -0.8572    6.4276   20.8816 N.3    32  UNL32      -0.3437
    126 H          -0.3350    6.1040   21.6947 H      32  UNL32       0.1146
    127 H          -1.2793    7.3144   21.1536 H      32  UNL32       0.1146
    128 H          -0.1611    6.6538   20.1726 H      32  UNL32       0.1146
    129 N          -0.8522    6.7867   23.7700 N.3    33  UNL33      -0.3437
    130 H          -1.2925    6.0226   23.2594 H      33  UNL33       0.1146
    131 H          -0.1422    6.3569   24.3612 H      33  UNL33       0.1146
    132 H          -0.3457    7.3336   23.0753 H      33  UNL33       0.1146
    133 N          -0.8790    6.7687   26.3913 N.3    34  UNL34      -0.3437
    134 H          -1.2072    6.0128   25.7920 H      34  UNL34       0.1146
    135 H          -0.2288    6.3427   27.0502 H      34  UNL34       0.1146
    136 H          -0.3176    7.3757   25.7956 H      34  UNL34       0.1146
    137 N          -0.8261    6.7581   29.1017 N.3    35  UNL35      -0.3437
    138 H          -1.3751    6.3181   28.3646 H      35  UNL35       0.1146
    139 H          -0.2408    6.0217   29.4936 H      35  UNL35       0.1146
    140 H          -0.1907    7.4019   28.6325 H      35  UNL35       0.1146
    141 N          -0.9327    6.6135   34.0709 N.3    36  UNL36      -0.3437
    142 H          -0.9142    6.6701   35.0882 H      36  UNL36       0.1146
    143 H          -0.4088    7.4205   33.7351 H      36  UNL36       0.1146
    144 H          -0.3768    5.7957   33.8249 H      36  UNL36       0.1146
    145 N          -0.8339    9.6328    2.6353 N.3    37  UNL37      -0.3437
    146 H          -1.3551    8.9526    2.0838 H      37  UNL37       0.1146
    147 H          -0.2358    9.0908    3.2574 H      37  UNL37       0.1146
    148 H          -0.2078   10.1027    1.9829 H      37  UNL37       0.1146
    149 N          -0.8290    9.5835    5.3280 N.3    38  UNL38      -0.3437
    150 H          -1.3656    9.0248    4.6660 H      38  UNL38       0.1146
    151 H          -0.1651    8.9438    5.7621 H      38  UNL38       0.1146
    152 H          -0.2729   10.2269    4.7666 H      38  UNL38       0.1146
    153 N          -0.8363    9.5851    7.9611 N.3    39  UNL39      -0.3437
    154 H          -1.3472    9.0150    7.2885 H      39  UNL39       0.1146
    155 H          -0.1845    8.9547    8.4259 H      39  UNL39       0.1146
    156 H          -0.2646   10.2242    7.4106 H      39  UNL39       0.1146
    157 N          -0.8074    9.2696   10.2268 N.3    40  UNL40      -0.3437
    158 H          -1.4191    9.8068   10.8397 H      40  UNL40       0.1146
    159 H          -0.2256    9.9517    9.7425 H      40  UNL40       0.1146
    160 H          -0.1805    8.7509   10.8403 H      40  UNL40       0.1146
    161 N          -0.8935    9.5871   13.1613 N.3    41  UNL41      -0.3437
    162 H          -1.1420    8.8913   12.4596 H      41  UNL41       0.1146
    163 H          -0.3708    9.0876   13.8794 H      41  UNL41       0.1146
    164 H          -0.2263   10.2129   12.7124 H      41  UNL41       0.1146
    165 N          -0.8453    9.2530   18.2100 N.3    42  UNL42      -0.3437
    166 H          -1.3228    9.9937   18.7216 H      42  UNL42       0.1146
    167 H          -0.2487    9.7214   17.5295 H      42  UNL42       0.1146
    168 H          -0.2158    8.8109   18.8782 H      42  UNL42       0.1146
    169 N          -0.8398    9.2900   20.8012 N.3    43  UNL43      -0.3437
    170 H          -1.3357    9.9436   21.4056 H      43  UNL43       0.1146
    171 H          -0.1686    9.8477   20.2752 H      43  UNL43       0.1146
    172 H          -0.2885    8.6976   21.4206 H      43  UNL43       0.1146
    173 N          -0.8472    9.2569   23.4886 N.3    44  UNL44      -0.3437
    174 H          -1.3173    9.9879   24.0205 H      44  UNL44       0.1146
    175 H          -0.2529    9.7378   22.8148 H      44  UNL44       0.1146
    176 H          -0.2152    8.7964   24.1419 H      44  UNL44       0.1146
    177 N          -0.8575    9.5502   26.4483 N.3    45  UNL45      -0.3437
    178 H          -1.2853    9.1192   25.6300 H      45  UNL45       0.1146
    179 H          -0.2564    8.8373   26.8593 H      45  UNL45       0.1146
    180 H          -0.2333   10.2722   26.0915 H      45  UNL45       0.1146
    181 N          -0.4717    9.2268   31.4674 N.3    46  UNL46      -0.3437
    182 H          -1.4481    8.9379   31.4301 H      46  UNL46       0.1146
    183 H          -0.3931   10.0321   30.8479 H      46  UNL46       0.1146
    184 H          -0.3197    9.5821   32.4103 H      46  UNL46       0.1146
    185 N          -0.8921   12.1287    0.3707 N.3    47  UNL47      -0.3437
    186 H          -1.1533   12.8274    1.0650 H      47  UNL47       0.1146
    187 H          -0.3259   12.6180   -0.3210 H      47  UNL47       0.1146
    188 H          -0.2613   11.4839    0.8447 H      47  UNL47       0.1146
    189 N          -0.8560   12.0818    3.2524 N.3    48  UNL48      -0.3437
    190 H          -1.2902   12.8405    2.7288 H      48  UNL48       0.1146
    191 H          -0.2333   11.6095    2.5984 H      48  UNL48       0.1146
    192 H          -0.2530   12.5263    3.9431 H      48  UNL48       0.1146
    193 N          -0.8803   12.3661   10.5787 N.3    49  UNL49      -0.3437
    194 H          -1.2008   11.7827    9.8072 H      49  UNL49       0.1146
    195 H          -0.2210   11.7962   11.1068 H      49  UNL49       0.1146
    196 H          -0.3305   13.1130   10.1565 H      49  UNL49       0.1146
    197 N          -0.8524   12.4157   13.2167 N.3    50  UNL50      -0.3437
    198 H          -1.2983   11.7292   12.6099 H      50  UNL50       0.1146
    199 H          -0.1808   11.8975   13.7813 H      50  UNL50       0.1146
    200 H          -0.3011   13.0156   12.6047 H      50  UNL50       0.1146
    201 N          -0.8423   12.3951   15.8848 N.3    51  UNL51      -0.3437
    202 H          -0.2641   11.6791   16.3223 H      51  UNL51       0.1146
    203 H          -0.1954   13.0511   15.4494 H      51  UNL51       0.1146
    204 H          -1.3308   11.9327   15.1194 H      51  UNL51       0.1146
    205 N          -0.8522   12.1716   18.1321 N.3    52  UNL52      -0.3437
    206 H          -1.3020   12.5840   18.9482 H      52  UNL52       0.1146
    207 H          -0.2163   12.8823   17.7728 H      52  UNL52       0.1146
    208 H          -0.2621   11.4202   18.4862 H      52  UNL52       0.1146
    209 N          -0.4469   12.1519   21.1491 N.3    53  UNL53      -0.3437
    210 H          -0.9639   11.4351   20.6418 H      53  UNL53       0.1146
    211 H          -0.0793   12.7867   20.4418 H      53  UNL53       0.1146
    212 H          -1.1425   12.6843   21.6699 H      53  UNL53       0.1146
    213 N          -0.8911   12.3571   23.7731 N.3    54  UNL54      -0.3437
    214 H          -1.1334   11.6352   23.0960 H      54  UNL54       0.1146
    215 H          -0.1565   11.9596   24.3568 H      54  UNL54       0.1146
    216 H          -0.4516   13.1061   23.2399 H      54  UNL54       0.1146
    217 N          -0.8576   12.4271   26.4027 N.3    55  UNL55      -0.3437
    218 H          -1.2852   11.7354   25.7886 H      55  UNL55       0.1146
    219 H          -0.2426   11.9067   27.0268 H      55  UNL55       0.1146
    220 H          -0.2472   12.9889   25.8110 H      55  UNL55       0.1146
    221 N          -0.9318   12.3729   31.5113 N.3    56  UNL56      -0.3437
    222 H          -0.9130   11.4617   31.9672 H      56  UNL56       0.1146
    223 H          -0.3229   12.9756   32.0631 H      56  UNL56       0.1146
    224 H          -0.4650   12.2478   30.6142 H      56  UNL56       0.1146
    225 N          -0.9034   12.1079   35.1278 N.3    57  UNL57      -0.3437
    226 H          -0.2871   11.6617   35.8056 H      57  UNL57       0.1146
    227 H          -1.1000   13.0374   35.4962 H      57  UNL57       0.1146
    228 H          -0.3421   12.2510   34.2894 H      57  UNL57       0.1146
    229 N          -0.8855   14.9468   -0.0214 N.3    58  UNL58      -0.3437
    230 H          -1.1795   15.7220   -0.6138 H      58  UNL58       0.1146
    231 H          -0.3393   14.3280   -0.6192 H      58  UNL58       0.1146
    232 H          -0.2282   15.3403    0.6505 H      58  UNL58       0.1146
    233 N          -0.8215   14.9652    2.7055 N.3    59  UNL59      -0.3437
    234 H          -1.3843   15.3067    1.9277 H      59  UNL59       0.1146
    235 H          -0.1577   14.3049    2.3032 H      59  UNL59       0.1146
    236 H          -0.2691   15.7604    3.0230 H      59  UNL59       0.1146
    237 N          -0.8513   15.1373    4.9133 N.3    60  UNL60      -0.3437
    238 H          -1.2317   15.3403    5.8366 H      60  UNL60       0.1146
    239 H          -0.0022   15.6945    4.8306 H      60  UNL60       0.1146
    240 H          -0.5474   14.1651    4.9423 H      60  UNL60       0.1146
    241 N          -0.9047   15.2454    7.7968 N.3    61  UNL61      -0.3437
    242 H          -1.0414   14.3999    7.2448 H      61  UNL61       0.1146
    243 H          -0.5413   14.9371    8.6975 H      61  UNL61       0.1146
    244 H          -0.1453   15.7547    7.3470 H      61  UNL61       0.1146
    245 N          -0.9210   15.1737   15.5926 N.3    62  UNL62      -0.3437
    246 H          -0.9985   14.5717   16.4111 H      62  UNL62       0.1146
    247 H          -0.3209   15.9492   15.8700 H      62  UNL62       0.1146
    248 H          -0.3922   14.6425   14.9022 H      62  UNL62       0.1146
    249 N          -0.4731   14.9655   18.5323 N.3    63  UNL63      -0.3437
    250 H          -1.0522   14.2686   18.0662 H      63  UNL63       0.1146
    251 H           0.0118   15.4692   17.7910 H      63  UNL63       0.1146
    252 H          -1.1192   15.6339   18.9497 H      63  UNL63       0.1146
    253 N          -0.8312   15.2548   21.1440 N.3    64  UNL64      -0.3437
    254 H          -1.3518   14.7517   20.4269 H      64  UNL64       0.1146
    255 H          -0.3349   14.5449   21.6809 H      64  UNL64       0.1146
    256 H          -0.1148   15.7857   20.6507 H      64  UNL64       0.1146
    257 N          -0.8228   15.2318   23.8126 N.3    65  UNL65      -0.3437
    258 H          -1.3802   14.7927   23.0812 H      65  UNL65       0.1146
    259 H          -0.2785   14.4831   24.2387 H      65  UNL65       0.1146
    260 H          -0.1511   15.8295   23.3332 H      65  UNL65       0.1146
    261 N          -0.6223   15.3278   26.0935 N.3    66  UNL66      -0.3437
    262 H          -1.2333   14.6422   25.6518 H      66  UNL66       0.1146
    263 H          -1.0324   15.5231   27.0057 H      66  UNL66       0.1146
    264 H           0.2554   14.8440   26.2781 H      66  UNL66       0.1146
    265 N          -0.8962   15.2393   31.6207 N.3    67  UNL67      -0.3437
    266 H          -1.1181   14.4951   30.9610 H      67  UNL67       0.1146
    267 H          -0.4304   14.7881   32.4068 H      67  UNL67       0.1146
    268 H          -0.1879   15.8146   31.1672 H      67  UNL67       0.1146
    269 N          -0.9218   15.1199   35.3086 N.3    68  UNL68      -0.3437
    270 H          -0.2530   14.6367   35.9066 H      68  UNL68       0.1146
    271 H          -0.4841   16.0046   35.0553 H      68  UNL68       0.1146
    272 H          -0.9738   14.5759   34.4485 H      68  UNL68       0.1146
    273 N          -0.8515   17.7871    0.6803 N.3    69  UNL69      -0.3437
    274 H          -0.3225   17.0801    0.1718 H      69  UNL69       0.1146
    275 H          -0.1604   18.3817    1.1355 H      69  UNL69       0.1146
    276 H          -1.2981   18.3674   -0.0283 H      69  UNL69       0.1146
    277 N          -0.4818   18.1047    3.2574 N.3    70  UNL70      -0.3437
    278 H          -0.9101   17.4735    3.9331 H      70  UNL70       0.1146
    279 H           0.0111   17.5111    2.5918 H      70  UNL70       0.1146
    280 H          -1.2517   18.5270    2.7404 H      70  UNL70       0.1146
    281 N          -0.7151   17.9155    6.0613 N.3    71  UNL71      -0.3437
    282 H           0.2604   18.1136    5.8433 H      71  UNL71       0.1146
    283 H          -1.2644   18.5855    5.5249 H      71  UNL71       0.1146
    284 H          -0.9134   17.0017    5.6565 H      71  UNL71       0.1146
    285 N          -0.8123   17.7709    8.1982 N.3    72  UNL72      -0.3437
    286 H          -1.4085   18.1968    8.9064 H      72  UNL72       0.1146
    287 H          -0.2150   18.5182    7.8474 H      72  UNL72       0.1146
    288 H          -0.1968   17.1303    8.6974 H      72  UNL72       0.1146
    289 N          -0.9151   17.7949   10.9561 N.3    73  UNL73      -0.3437
    290 H          -1.0367   18.5691   11.6074 H      73  UNL73       0.1146
    291 H          -0.3284   18.1510   10.2028 H      73  UNL73       0.1146
    292 H          -0.3524   17.1012   11.4463 H      73  UNL73       0.1146
    293 N          -0.8454   17.8007   13.4900 N.3    74  UNL74      -0.3437
    294 H          -1.3228   18.2021   14.2958 H      74  UNL74       0.1146
    295 H          -0.2363   18.5342   13.1303 H      74  UNL74       0.1146
    296 H          -0.2281   17.0793   13.8599 H      74  UNL74       0.1146
    297 N          -0.7831   18.0781   16.5385 N.3    75  UNL75      -0.3437
    298 H          -0.1074   17.4276   16.9368 H      75  UNL75       0.1146
    299 H          -0.2798   18.6043   15.8256 H      75  UNL75       0.1146
    300 H          -1.4623   17.5063   16.0383 H      75  UNL75       0.1146
    301 N          -0.8297   17.7355   18.9468 N.3    76  UNL76      -0.3437
    302 H          -1.3631   18.2787   19.6241 H      76  UNL76       0.1146
    303 H          -0.2809   18.4100   18.4154 H      76  UNL76       0.1146
    304 H          -0.1589   17.1922   19.4883 H      76  UNL76       0.1146
    305 N          -0.8184   17.7248   21.4446 N.3    77  UNL77      -0.3437
    306 H          -1.3862   18.2342   22.1203 H      77  UNL77       0.1146
    307 H          -0.3124   18.4318   20.9131 H      77  UNL77       0.1146
    308 H          -0.1156   17.2255   21.9879 H      77  UNL77       0.1146
    309 N          -0.8341   17.7555   24.0719 N.3    78  UNL78      -0.3437
    310 H          -1.3544   18.2816   24.7725 H      78  UNL78       0.1146
    311 H          -0.2411   18.4333   23.5949 H      78  UNL78       0.1146
    312 H          -0.2029   17.1459   24.5899 H      78  UNL78       0.1146
    313 N          -0.8155   17.7169   26.7320 N.3    79  UNL79      -0.3437
    314 H          -1.3946   18.2566   27.3736 H      79  UNL79       0.1146
    315 H          -0.3005   18.3990   26.1771 H      79  UNL79       0.1146
    316 H          -0.1220   17.2438   27.3097 H      79  UNL79       0.1146
    317 N          -0.8818   17.7524   29.4191 N.3    80  UNL80      -0.3437
    318 H          -1.1885   18.4002   30.1433 H      80  UNL80       0.1146
    319 H          -0.3755   18.3140   28.7360 H      80  UNL80       0.1146
    320 H          -0.1868   17.1496   29.8574 H      80  UNL80       0.1146
    321 N          -0.8238   20.5772    2.2938 N.3    81  UNL81      -0.3437
    322 H          -1.3773   21.0100    3.0318 H      81  UNL81       0.1146
    323 H          -0.2841   21.3302    1.8693 H      81  UNL81       0.1146
    324 H          -0.1474   19.9779    2.7646 H      81  UNL81       0.1146
    325 N          -0.9527   20.7078    5.1498 N.3    82  UNL82      -0.3437
    326 H          -0.5026   20.7899    6.0603 H      82  UNL82       0.1146
    327 H          -0.6359   21.5097    4.6066 H      82  UNL82       0.1146
    328 H          -0.5414   19.8879    4.7061 H      82  UNL82       0.1146
    329 N          -0.9525   20.7030   10.3953 N.3    83  UNL83      -0.3437
    330 H          -0.6169   20.7676   11.3553 H      83  UNL83       0.1146
    331 H          -0.5868   21.5235    9.9141 H      83  UNL83       0.1146
    332 H          -0.4764   19.9012    9.9847 H      83  UNL83       0.1146
    333 N          -0.8562   20.5558   18.1936 N.3    84  UNL84      -0.3437
    334 H          -1.2898   21.2591   18.7901 H      84  UNL84       0.1146
    335 H          -0.2460   21.0657   17.5563 H      84  UNL84       0.1146
    336 H          -0.2406   20.0148   18.7992 H      84  UNL84       0.1146
    337 N          -0.8318   20.5470   20.8145 N.3    85  UNL85      -0.3437
    338 H          -1.3606   21.1780   21.4151 H      85  UNL85       0.1146
    339 H          -0.2334   21.1403   20.2416 H      85  UNL85       0.1146
    340 H          -0.2069   20.0300   21.4313 H      85  UNL85       0.1146
    341 N          -0.8684   20.5474   26.1476 N.3    86  UNL86      -0.3437
    342 H          -1.2486   21.3497   26.6478 H      86  UNL86       0.1146
    343 H          -0.2586   20.9294   25.4261 H      86  UNL86       0.1146
    344 H          -0.2570   20.0689   26.8076 H      86  UNL86       0.1146
    345 N          -0.9293   20.6072   28.9136 N.3    87  UNL87      -0.3437
    346 H          -0.5640   20.8774   29.8256 H      87  UNL87       0.1146
    347 H          -0.8935   21.4466   28.3368 H      87  UNL87       0.1146
    348 H          -0.2458   19.9642   28.5164 H      87  UNL87       0.1146
    349 N          -0.4997   20.9302   35.3200 N.3    88  UNL88      -0.3437
    350 H          -0.1187   19.9926   35.4387 H      88  UNL88       0.1146
    351 H          -0.5500   21.0878   34.3146 H      88  UNL88       0.1146
    352 H          -1.4642   20.8848   35.6457 H      88  UNL88       0.1146
    353 N          -0.8531   23.3870   -0.3086 N.3    89  UNL89      -0.3437
    354 H          -1.2985   24.0679    0.3050 H      89  UNL89       0.1146
    355 H          -0.2076   23.9159   -0.8934 H      89  UNL89       0.1146
    356 H          -0.2733   22.8037    0.2931 H      89  UNL89       0.1146
    357 N          -0.8523   23.4070    2.3138 N.3    90  UNL90      -0.3437
    358 H          -1.2965   24.0567    2.9611 H      90  UNL90       0.1146
    359 H          -0.1658   23.9528    1.7949 H      90  UNL90       0.1146
    360 H          -0.3179   22.7580    2.8896 H      90  UNL90       0.1146
    361 N          -0.8558   23.4042    4.9607 N.3    91  UNL91      -0.3437
    362 H          -1.2897   24.0347    5.6335 H      91  UNL91       0.1146
    363 H          -0.2043   23.9734    4.4221 H      91  UNL91       0.1146
    364 H          -0.2829   22.7622    5.5065 H      91  UNL91       0.1146
    365 N          -0.9039   23.4561    7.6325 N.3    92  UNL92      -0.3437
    366 H          -0.4002   22.6837    8.0660 H      92  UNL92       0.1146
    367 H          -1.0899   24.1243    8.3791 H      92  UNL92       0.1146
    368 H          -0.2385   23.9104    7.0085 H      92  UNL92       0.1146
    369 N          -0.8165   23.7073   10.6008 N.3    93  UNL93      -0.3437
    370 H          -1.3965   23.2161    9.9221 H      93  UNL93       0.1146
    371 H          -0.2641   22.9905   11.0693 H      93  UNL93       0.1146
    372 H          -0.1555   24.2605   10.0571 H      93  UNL93       0.1146
    373 N          -0.8759   23.4763   12.8649 N.3    94  UNL94      -0.3437
    374 H          -1.2153   23.9162   13.7191 H      94  UNL94       0.1146
    375 H          -0.1965   24.1231   12.4667 H      94  UNL94       0.1146
    376 H          -0.3448   22.6589   13.1619 H      94  UNL94       0.1146
    377 N          -0.8699   23.6346   15.5090 N.3    95  UNL95      -0.3437
    378 H          -1.2384   23.1176   16.3060 H      95  UNL95       0.1146
    379 H          -0.3298   24.4054   15.8995 H      95  UNL95       0.1146
    380 H          -0.1944   23.0168   15.0615 H      95  UNL95       0.1146
    381 N          -0.8513   23.4070   18.1577 N.3    96  UNL96      -0.3437
    382 H          -1.2992   24.0567   18.8024 H      96  UNL96       0.1146
    383 H          -0.1619   23.9527   17.6426 H      96  UNL96       0.1146
    384 H          -0.3202   22.7581   18.7366 H      96  UNL96       0.1146
    385 N          -0.8470   23.4063   20.7944 N.3    97  UNL97      -0.3437
    386 H          -1.3153   24.0166   21.4627 H      97  UNL97       0.1146
    387 H          -0.1799   23.9942   20.2967 H      97  UNL97       0.1146
    388 H          -0.2904   22.7573   21.3488 H      97  UNL97       0.1146
    389 N          -0.8518   23.3850   23.4592 N.3    98  UNL98      -0.3437
    390 H          -1.3001   24.0981   24.0325 H      98  UNL98       0.1146
    391 H          -0.1782   23.8775   22.8742 H      98  UNL98       0.1146
    392 H          -0.3025   22.8139   24.0999 H      98  UNL98       0.1146
    393 N          -0.8802   23.5547   26.4520 N.3    99  UNL99      -0.3437
    394 H          -1.2011   23.4041   25.4967 H      99  UNL99       0.1146
    395 H          -0.2207   22.8032   26.6486 H      99  UNL99       0.1146
    396 H          -0.3305   24.4125   26.4318 H      99  UNL99       0.1146
    397 N          -0.8984   23.5387   28.7260 N.3   100  UNL100     -0.3437
    398 H          -1.0188   23.0055   29.5859 H     100  UNL100      0.1146
    399 H          -0.6388   24.4811   29.0139 H     100  UNL100      0.1146
    400 H          -0.0766   23.1491   28.2666 H     100  UNL100      0.1146
    401 N          -0.9531   23.5235   31.5394 N.3   101  UNL101     -0.3437
    402 H          -0.4996   22.6578   31.2508 H     101  UNL101      0.1146
    403 H          -0.5718   23.7479   32.4574 H     101  UNL101      0.1146
    404 H          -0.6081   24.2452   30.9081 H     101  UNL101      0.1146
    405 N          -0.8310   23.3418   35.3092 N.3   102  UNL102     -0.3437
    406 H          -0.0730   23.6570   35.9129 H     102  UNL102      0.1146
    407 H          -1.3409   24.1810   35.0371 H     102  UNL102      0.1146
    408 H          -0.3877   22.9948   34.4598 H     102  UNL102      0.1146
    409 N          -0.9232   26.4313   -0.0390 N.3   103  UNL103     -0.3437
    410 H          -0.9790   25.7626   -0.8059 H     103  UNL103      0.1146
    411 H          -0.2985   26.0161    0.6508 H     103  UNL103      0.1146
    412 H          -0.4320   27.2435   -0.4098 H     103  UNL103      0.1146
    413 N          -0.8205   26.5100    2.6887 N.3   104  UNL104     -0.3437
    414 H          -1.3891   25.9873    2.0240 H     104  UNL104      0.1146
    415 H          -0.1926   25.8308    3.1162 H     104  UNL104      0.1146
    416 H          -0.2304   27.1254    2.1305 H     104  UNL104      0.1146
    417 N          -0.8248   26.4961    5.3356 N.3   105  UNL105     -0.3437
    418 H          -1.3739   25.9448    4.6776 H     105  UNL105      0.1146
    419 H          -0.1418   25.8554    5.7374 H     105  UNL105      0.1146
    420 H          -0.2921   27.1572    4.7721 H     105  UNL105      0.1146
    421 N          -0.8416   26.4155    7.9974 N.3   106  UNL106     -0.3437
    422 H          -1.3282   26.1013    7.1590 H     106  UNL106      0.1146
    423 H          -0.1515   25.6959    8.2080 H     106  UNL106      0.1146
    424 H          -0.3113   27.2408    7.7216 H     106  UNL106      0.1146
    425 N          -0.8587   26.4628   10.2193 N.3   107  UNL107     -0.3437
    426 H          -1.2732   25.9119   10.9697 H     107  UNL107      0.1146
    427 H          -0.3434   27.2148   10.6745 H     107  UNL107      0.1146
    428 H          -0.1573   25.8641    9.7858 H     107  UNL107      0.1146
    429 N          -0.8714   26.5263   13.1771 N.3   108  UNL108     -0.3437
    430 H          -1.2359   25.7270   12.6607 H     108  UNL108      0.1146
    431 H          -0.2188   26.1451   13.8607 H     108  UNL108      0.1146
    432 H          -0.3065   27.0551   12.5141 H     108  UNL108      0.1146
    433 N          -0.8586   26.4829   15.8754 N.3   109  UNL109     -0.3437
    434 H          -1.2780   25.8902   15.1605 H     109  UNL109      0.1146
    435 H          -0.1832   25.8975   16.3649 H     109  UNL109      0.1146
    436 H          -0.3128   27.1830   15.3751 H     109  UNL109      0.1146
    437 N          -0.8265   26.2631   18.1135 N.3   110  UNL110     -0.3437
    438 H          -1.3683   26.7240   18.8432 H     110  UNL110      0.1146
    439 H          -0.1345   26.9444   17.8048 H     110  UNL110      0.1146
    440 H          -0.3034   25.5221   18.5778 H     110  UNL110      0.1146
    441 N          -0.8126   26.1991   20.7845 N.3   111  UNL111     -0.3437
    442 H          -1.4078   26.7283   21.4202 H     111  UNL111      0.1146
    443 H          -0.2158   26.8840   20.3229 H     111  UNL111      0.1146
    444 H          -0.1964   25.6422   21.3749 H     111  UNL111      0.1146
    445 N          -0.8679   26.2440   23.4458 N.3   112  UNL112     -0.3437
    446 H          -1.2504   26.7951   24.2128 H     112  UNL112      0.1146
    447 H          -0.2498   26.8699   22.9313 H     112  UNL112      0.1146
    448 H          -0.2645   25.5446   23.8760 H     112  UNL112      0.1146
    449 N          -0.9080   26.4205   26.1100 N.3   113  UNL113     -0.3437
    450 H          -1.0595   25.8378   26.9322 H     113  UNL113      0.1146
    451 H          -0.4463   27.2648   26.4453 H     113  UNL113      0.1146
    452 H          -0.2187   25.9304   25.5416 H     113  UNL113      0.1146
    453 N          -0.8464   26.5378   29.0447 N.3   114  UNL114     -0.3437
    454 H          -1.3193   25.8239   28.4925 H     114  UNL114      0.1146
    455 H          -0.2089   26.0381   29.6631 H     114  UNL114      0.1146
    456 H          -0.2579   27.0537   28.3921 H     114  UNL114      0.1146
    457 N          -0.8577   26.5025   31.7068 N.3   115  UNL115     -0.3437
    458 H          -1.2837   25.8712   31.0298 H     115  UNL115      0.1146
    459 H          -0.2111   25.9346   32.2524 H     115  UNL115      0.1146
    460 H          -0.2801   27.1452   31.1667 H     115  UNL115      0.1146
    461 N          -0.4531   26.1597   35.2417 N.3   116  UNL116     -0.3437
    462 H          -0.6825   26.1988   34.2497 H     116  UNL116      0.1146
    463 H          -0.1638   27.1020   35.5005 H     116  UNL116      0.1146
    464 H          -1.3333   25.9930   35.7272 H     116  UNL116      0.1146
    465 N          -0.8850   29.1561    0.0366 N.3   117  UNL117     -0.3437
    466 H          -0.6447   30.1279   -0.1534 H     117  UNL117      0.1146
    467 H          -1.0706   28.7301   -0.8703 H     117  UNL117      0.1146
    468 H          -0.0324   28.7185    0.3831 H     117  UNL117      0.1146
    469 N          -0.7980   30.0515    2.2652 N.3   118  UNL118     -0.3437
    470 H          -1.4391   30.4263    2.9629 H     118  UNL118      0.1146
    471 H          -0.2202   30.8353    1.9648 H     118  UNL118      0.1146
    472 H          -0.1754   29.4196    2.7666 H     118  UNL118      0.1146
    473 N          -0.9012   30.1402    4.9681 N.3   119  UNL119     -0.3437
    474 H          -1.1104   30.4591    5.9130 H     119  UNL119      0.1146
    475 H          -0.2773   30.8393    4.5674 H     119  UNL119      0.1146
    476 H          -0.3436   29.2940    5.0742 H     119  UNL119      0.1146
    477 N          -0.9531   29.1979    7.7845 N.3   120  UNL120     -0.3437
    478 H          -0.5517   28.6542    8.5472 H     120  UNL120      0.1146
    479 H          -0.5103   30.1146    7.8296 H     120  UNL120      0.1146
    480 H          -0.6176   28.7659    6.9247 H     120  UNL120      0.1146
    481 N          -0.8357   30.1014   10.1905 N.3   121  UNL121     -0.3437
    482 H          -1.3490   30.4602   10.9944 H     121  UNL121      0.1146
    483 H          -0.1833   30.8371    9.9227 H     121  UNL121      0.1146
    484 H          -0.2646   29.3340   10.5416 H     121  UNL121      0.1146
    485 N          -0.8442   30.1012   12.8386 N.3   122  UNL122     -0.3437
    486 H          -1.3254   30.4674   13.6588 H     122  UNL122      0.1146
    487 H          -0.1982   30.8316   12.5426 H     122  UNL122      0.1146
    488 H          -0.2648   29.3325   13.1727 H     122  UNL122      0.1146
    489 N          -0.9298   30.1956   15.5780 N.3   123  UNL123     -0.3437
    490 H          -0.9147   30.4221   16.5714 H     123  UNL123      0.1146
    491 H          -0.2809   30.8428   15.1324 H     123  UNL123      0.1146
    492 H          -0.5072   29.2721   15.4941 H     123  UNL123      0.1146
    493 N          -0.8156   30.3212   23.4079 N.3   124  UNL124     -0.3437
    494 H          -0.2457   29.5635   23.0345 H     124  UNL124      0.1146
    495 H          -1.3997   29.9034   24.1308 H     124  UNL124      0.1146
    496 H          -0.1716   30.9445   23.8927 H     124  UNL124      0.1146
    497 N          -0.8439   30.1014   26.0423 N.3   125  UNL125     -0.3437
    498 H          -1.3266   30.4602   26.8649 H     125  UNL125      0.1146
    499 H          -0.2021   30.8371   25.7502 H     125  UNL125      0.1146
    500 H          -0.2601   29.3340   26.3717 H     125  UNL125      0.1146
    501 N          -0.8442   30.1012   28.6835 N.3   126  UNL126     -0.3437
    502 H          -1.3254   30.4674   29.5037 H     126  UNL126      0.1146
    503 H          -0.1982   30.8316   28.3875 H     126  UNL126      0.1146
    504 H          -0.2648   29.3325   29.0177 H     126  UNL126      0.1146
    505 N          -0.9228   30.1412   31.4141 N.3   127  UNL127     -0.3437
    506 H          -0.9886   30.4720   32.3757 H     127  UNL127      0.1146
    507 H          -0.3577   30.8293   30.9184 H     127  UNL127      0.1146
    508 H          -0.3635   29.2901   31.4475 H     127  UNL127      0.1146
    509 N          -0.8999   29.1374   34.0159 N.3   128  UNL128     -0.3437
    510 H          -0.9772   28.7412   34.9515 H     128  UNL128      0.1146
    511 H          -0.6933   30.1268   34.1461 H     128  UNL128      0.1146
    512 H          -0.0622   28.7273   33.6055 H     128  UNL128      0.1146
    513 N           1.6968    0.8522   -0.3469 N.3   129  UNL129     -0.3437
    514 H           1.1948    1.1813    0.4765 H     129  UNL129      0.1146
    515 H           2.1689    1.6686   -0.7330 H     129  UNL129      0.1146
    516 H           2.4337    0.2395   -0.0004 H     129  UNL129      0.1146
    517 N           2.1436    0.8656    2.4799 N.3   130  UNL130     -0.3437
    518 H           2.0821    1.7422    1.9640 H     130  UNL130      0.1146
    519 H           1.8408    1.0769    3.4297 H     130  UNL130      0.1146
    520 H           1.4277    0.2569    2.0858 H     130  UNL130      0.1146
    521 N           0.1552    1.0496    5.0681 N.3   131  UNL131     -0.3437
    522 H          -0.4307    1.8799    5.1437 H     131  UNL131      0.1146
    523 H           0.0511    0.5511    5.9508 H     131  UNL131      0.1146
    524 H          -0.2814    0.4611    4.3601 H     131  UNL131      0.1146
    525 N           1.5973    1.0730    7.8295 N.3   132  UNL132     -0.3437
    526 H           1.8682    0.2465    8.3604 H     132  UNL132      0.1146
    527 H           2.2911    1.7868    8.0475 H     132  UNL132      0.1146
    528 H           1.7376    0.8353    6.8486 H     132  UNL132      0.1146
    529 N           1.6700    0.8805   10.2254 N.3   133  UNL133     -0.3437
    530 H           1.2600    1.3206   11.0480 H     133  UNL133      0.1146
    531 H           2.2703    1.5853    9.7996 H     133  UNL133      0.1146
    532 H           2.2939    0.1553   10.5764 H     133  UNL133      0.1146
    533 N           1.6600    1.1337   13.1937 N.3   134  UNL134     -0.3437
    534 H           1.3005    0.3639   12.6312 H     134  UNL134      0.1146
    535 H           2.3395    0.7219   13.8318 H     134  UNL134      0.1146
    536 H           2.1943    1.7221   12.5560 H     134  UNL134      0.1146
    537 N           1.6779    1.0602   15.9026 N.3   135  UNL135     -0.3437
    538 H           2.3387    0.3515   16.2179 H     135  UNL135      0.1146
    539 H           2.2410    1.8495   15.5890 H     135  UNL135      0.1146
    540 H           1.2365    0.6804   15.0664 H     135  UNL135      0.1146
    541 N           1.6968    0.8701   18.1278 N.3   136  UNL136     -0.3437
    542 H           1.1836    1.3843   18.8423 H     136  UNL136      0.1146
    543 H           2.3774    1.5248   17.7450 H     136  UNL136      0.1146
    544 H           2.2364    0.1624   18.6241 H     136  UNL136      0.1146
    545 N           1.7049    0.8236   20.7946 N.3   137  UNL137     -0.3437
    546 H           1.1666    1.4972   21.3377 H     137  UNL137      0.1146
    547 H           2.4111    1.3642   20.2972 H     137  UNL137      0.1146
    548 H           2.2116    0.2567   21.4730 H     137  UNL137      0.1146
    549 N           1.6905    1.1463   23.7837 N.3   138  UNL138     -0.3437
    550 H           1.2070    0.6468   23.0387 H     138  UNL138      0.1146
    551 H           2.1920    0.4378   24.3175 H     138  UNL138      0.1146
    552 H           2.4047    1.7108   23.3259 H     138  UNL138      0.1146
    553 N           1.7134    1.1343   26.4561 N.3   139  UNL139     -0.3437
    554 H           1.1373    0.6439   25.7735 H     139  UNL139      0.1146
    555 H           2.3097    0.4258   26.8813 H     139  UNL139      0.1146
    556 H           2.3339    1.7376   25.9182 H     139  UNL139      0.1146
    557 N           1.6223    0.9332   28.7514 N.3   140  UNL140     -0.3437
    558 H           1.4636    1.3341   29.6747 H     140  UNL140      0.1146
    559 H           2.2351    1.5851   28.2637 H     140  UNL140      0.1146
    560 H           2.1733    0.0894   28.9025 H     140  UNL140      0.1146
    561 N          -0.3980    0.9850   31.4222 N.3   141  UNL141     -0.3437
    562 H          -0.4067    0.9568   32.4408 H     141  UNL141      0.1146
    563 H           0.1385    1.8134   31.1687 H     141  UNL141      0.1146
    564 H           0.1604    0.1865   31.1239 H     141  UNL141      0.1146
    565 N           1.7976    1.0363   34.4609 N.3   142  UNL142     -0.3437
    566 H           1.0481    0.6045   33.9223 H     142  UNL142      0.1146
    567 H           2.5996    0.4134   34.3758 H     142  UNL142      0.1146
    568 H           2.0489    1.8875   33.9601 H     142  UNL142      0.1146
    569 N           1.6561    3.6815    0.6473 N.3   143  UNL143     -0.3437
    570 H           2.3180    2.9972    0.2841 H     143  UNL143      0.1146
    571 H           2.2074    4.3450    1.1898 H     143  UNL143      0.1146
    572 H           1.3127    4.1971   -0.1618 H     143  UNL143      0.1146
    573 N           1.6980    3.7703    3.3659 N.3   144  UNL144     -0.3437
    574 H           2.1060    2.8933    3.0453 H     144  UNL144      0.1146
    575 H           2.4822    4.3948    3.5485 H     144  UNL144      0.1146
    576 H           1.2080    4.1623    2.5630 H     144  UNL144      0.1146
    577 N           1.7809    3.6933    5.6570 N.3   145  UNL145     -0.3437
    578 H           1.0126    3.9279    6.2839 H     145  UNL145      0.1146
    579 H           2.3218    4.5494    5.5431 H     145  UNL145      0.1146
    580 H           2.3788    3.0501    6.1739 H     145  UNL145      0.1146
    581 N           1.7104    3.5991    8.2772 N.3   146  UNL146     -0.3437
    582 H           1.1598    4.1973    8.8914 H     146  UNL146      0.1146
    583 H           2.1781    4.2239    7.6219 H     146  UNL146      0.1146
    584 H           2.4460    3.2005    8.8588 H     146  UNL146      0.1146
    585 N           1.6797    3.6325   10.9118 N.3   147  UNL147     -0.3437
    586 H           1.2351    4.2559   11.5841 H     147  UNL147      0.1146
    587 H           2.2077    4.2321   10.2793 H     147  UNL147      0.1146
    588 H           2.3717    3.1003   11.4374 H     147  UNL147      0.1146
    589 N           1.6334    3.6992   13.5581 N.3   148  UNL148     -0.3437
    590 H           1.4060    4.3286   14.3266 H     148  UNL148      0.1146
    591 H           2.2394    4.2277   12.9322 H     148  UNL148      0.1146
    592 H           2.2154    2.9652   13.9590 H     148  UNL148      0.1146
    593 N           1.6341    3.6543   18.2495 N.3   149  UNL149     -0.3437
    594 H           1.4033    4.4892   18.7862 H     149  UNL149      0.1146
    595 H           2.1997    3.9727   17.4640 H     149  UNL149      0.1146
    596 H           2.2571    3.1045   18.8395 H     149  UNL149      0.1146
    597 N           1.6484    3.6806   20.8301 N.3   150  UNL150     -0.3437
    598 H           2.2382    4.2532   20.2279 H     150  UNL150      0.1146
    599 H           2.2677    2.9948   21.2599 H     150  UNL150      0.1146
    600 H           1.3400    4.2921   21.5847 H     150  UNL150      0.1146
    601 N           1.6172    3.7128   23.5018 N.3   151  UNL151     -0.3437
    602 H           1.9638    3.0988   24.2375 H     151  UNL151      0.1146
    603 H           1.5513    4.6406   23.9181 H     151  UNL151      0.1146
    604 H           2.3619    3.7685   22.8084 H     151  UNL151      0.1146
    605 N           1.6858    3.9265   26.4507 N.3   152  UNL152     -0.3437
    606 H           1.2108    3.4184   25.7061 H     152  UNL152      0.1146
    607 H           2.3221    3.2592   26.8846 H     152  UNL152      0.1146
    608 H           2.2756    4.6167   25.9878 H     152  UNL152      0.1146
    609 N           1.6754    3.6865   28.7136 N.3   153  UNL153     -0.3437
    610 H           1.2455    4.2613   29.4369 H     153  UNL153      0.1146
    611 H           2.3458    4.2887   28.2378 H     153  UNL153      0.1146
    612 H           2.2275    2.9843   29.2041 H     153  UNL153      0.1146
    613 N           1.6307    3.9627   31.5988 N.3   154  UNL154     -0.3437
    614 H           1.4562    3.2037   30.9416 H     154  UNL154      0.1146
    615 H           2.0336    3.5290   32.4282 H     154  UNL154      0.1146
    616 H           2.3738    4.5254   31.1871 H     154  UNL154      0.1146
    617 N           1.7902    3.9753   35.4066 N.3   155  UNL155     -0.3437
    618 H           2.6591    3.4750   35.5879 H     155  UNL155      0.1146
    619 H           1.9454    4.5070   34.5513 H     155  UNL155      0.1146
    620 H           1.0995    3.2634   35.1732 H     155  UNL155      0.1146
    621 N           1.6717    6.5697   -0.3597 N.3   156  UNL156     -0.3437
    622 H           1.2921    7.0959    0.4260 H     156  UNL156      0.1146
    623 H           2.4598    7.1139   -0.7077 H     156  UNL156      0.1146
    624 H           2.0706    5.7203    0.0376 H     156  UNL156      0.1146
    625 N           1.6698    6.7697    2.6477 N.3   157  UNL157     -0.3437
    626 H           2.3127    6.2350    3.2300 H     157  UNL157      0.1146
    627 H           2.2500    7.3925    2.0874 H     157  UNL157      0.1146
    628 H           1.2617    6.1027    1.9943 H     157  UNL157      0.1146
    629 N           1.6711    6.7610    5.2977 N.3   158  UNL158     -0.3437
    630 H           1.2730    6.0229    4.7189 H     158  UNL158      0.1146
    631 H           2.4055    6.3199    5.8496 H     158  UNL158      0.1146
    632 H           2.1447    7.3960    4.6566 H     158  UNL158      0.1146
    633 N           1.6851    6.7435    7.9659 N.3   159  UNL159     -0.3437
    634 H           1.2125    6.2675    7.1988 H     159  UNL159      0.1146
    635 H           2.3031    6.0517    8.3876 H     159  UNL159      0.1146
    636 H           2.2936    7.4372    7.5337 H     159  UNL159      0.1146
    637 N           1.6855    6.4657   10.2490 N.3   160  UNL160     -0.3437
    638 H           1.2129    7.0456   10.9409 H     160  UNL160      0.1146
    639 H           2.2526    7.1015    9.6899 H     160  UNL160      0.1146
    640 H           2.3431    5.8870   10.7696 H     160  UNL160      0.1146
    641 N           1.6313    6.5014   12.9374 N.3   161  UNL161     -0.3437
    642 H           1.4296    7.3577   13.4517 H     161  UNL161      0.1146
    643 H           2.3210    6.7539   12.2310 H     161  UNL161      0.1146
    644 H           2.1123    5.8869   13.5925 H     161  UNL161      0.1146
    645 N           1.7330    6.7547   15.9193 N.3   162  UNL162     -0.3437
    646 H           1.0944    6.3248   15.2517 H     162  UNL162      0.1146
    647 H           2.3635    6.0136   16.2222 H     162  UNL162      0.1146
    648 H           2.3033    7.4067   15.3827 H     162  UNL162      0.1146
    649 N           1.7172    6.4917   18.1223 N.3   163  UNL163     -0.3437
    650 H           1.1283    6.9116   18.8401 H     163  UNL163      0.1146
    651 H           2.3055    7.2437   17.7662 H     163  UNL163      0.1146
    652 H           2.3431    5.8529   18.6107 H     163  UNL163      0.1146
    653 N           1.6909    6.4504   20.8222 N.3   164  UNL164     -0.3437
    654 H           1.1958    7.1007   21.4307 H     164  UNL164      0.1146
    655 H           2.2849    7.0226   20.2237 H     164  UNL164      0.1146
    656 H           2.3226    5.9262   21.4260 H     164  UNL164      0.1146
    657 N           1.7174    6.7815   23.8126 N.3   165  UNL165     -0.3437
    658 H           2.4062    6.1730   24.2527 H     165  UNL165      0.1146
    659 H           2.2368    7.3700   23.1628 H     165  UNL165      0.1146
    660 H           1.1338    6.1754   23.2377 H     165  UNL165      0.1146
    661 N           1.6765    6.7846   26.4091 N.3   166  UNL166     -0.3437
    662 H           1.2390    6.1060   25.7874 H     166  UNL166      0.1146
    663 H           2.3006    6.2511   27.0127 H     166  UNL166      0.1146
    664 H           2.2782    7.3582   25.8199 H     166  UNL166      0.1146
    665 N           1.6940    6.6934   29.1227 N.3   167  UNL167     -0.3437
    666 H           1.1977    6.2851   28.3320 H     167  UNL167      0.1146
    667 H           2.4114    6.0181   29.3831 H     167  UNL167      0.1146
    668 H           2.1911    7.5032   28.7545 H     167  UNL167      0.1146
    669 N          -0.3441    6.7736   31.6727 N.3   168  UNL168     -0.3437
    670 H           0.3491    6.4157   32.3281 H     168  UNL168      0.1146
    671 H           0.1704    7.3449   31.0038 H     168  UNL168      0.1146
    672 H          -0.6811    5.9657   31.1512 H     168  UNL168      0.1146
    673 N           1.8692    6.8882   35.3142 N.3   169  UNL169     -0.3437
    674 H           1.1048    6.2824   35.6093 H     169  UNL169      0.1146
    675 H           2.7262    6.3672   35.4949 H     169  UNL169      0.1146
    676 H           1.7940    6.9620   34.3007 H     169  UNL169      0.1146
    677 N          -0.2811    9.3224   -0.3711 N.3   170  UNL170     -0.3437
    678 H          -0.8604    9.5597    0.4329 H     170  UNL170      0.1146
    679 H           0.1827   10.1864   -0.6480 H     170  UNL170      0.1146
    680 H           0.4530    8.7105   -0.0175 H     170  UNL170      0.1146
    681 N           1.6922    9.5898    2.6728 N.3   171  UNL171     -0.3437
    682 H           1.1973    8.9514    2.0516 H     171  UNL171      0.1146
    683 H           2.3805    9.0237    3.1669 H     171  UNL171      0.1146
    684 H           2.2241   10.2141    2.0681 H     171  UNL171      0.1146
    685 N           1.7125    9.5979    5.3255 N.3   172  UNL172     -0.3437
    686 H           1.1393    9.0753    4.6647 H     172  UNL172      0.1146
    687 H           2.3230    8.9138    5.7701 H     172  UNL172      0.1146
    688 H           2.3195   10.1919    4.7624 H     172  UNL172      0.1146
    689 N           1.6868    9.5660    7.9659 N.3   173  UNL173     -0.3437
    690 H           1.2294    8.9052    7.3394 H     173  UNL173      0.1146
    691 H           2.4428    9.0506    8.4144 H     173  UNL173      0.1146
    692 H           2.1352   10.2572    7.3663 H     173  UNL173      0.1146
    693 N           1.6785    9.3270   10.2240 N.3   174  UNL174     -0.3437
    694 H           1.2330    9.7826   11.0192 H     174  UNL174      0.1146
    695 H           2.2684   10.0349    9.7890 H     174  UNL174      0.1146
    696 H           2.3143    8.6345   10.6171 H     174  UNL174      0.1146
    697 N           1.7508    9.6190   13.2579 N.3   175  UNL175     -0.3437
    698 H           1.0626    9.0756   12.7388 H     175  UNL175      0.1146
    699 H           2.4014    8.9426   13.6548 H     175  UNL175      0.1146
    700 H           2.2795   10.1417   12.5611 H     175  UNL175      0.1146
    701 N           1.8592    9.2565   15.4665 N.3   176  UNL176     -0.3437
    702 H           0.9409    9.5001   15.8350 H     176  UNL176      0.1146
    703 H           2.3062   10.1387   15.2207 H     176  UNL176      0.1146
    704 H           2.3879    8.8837   16.2538 H     176  UNL176      0.1146
    705 N           1.7445    9.3525   18.0854 N.3   177  UNL177     -0.3437
    706 H           1.1358    9.9451   18.6482 H     177  UNL177      0.1146
    707 H           2.5879    9.8983   17.9144 H     177  UNL177      0.1146
    708 H           2.0260    8.5831   18.6913 H     177  UNL177      0.1146
    709 N           1.6792    9.3390   21.1717 N.3   178  UNL178     -0.3437
    710 H           2.6166    8.9617   21.3033 H     178  UNL178      0.1146
    711 H           1.7752   10.3524   21.2188 H     178  UNL178      0.1146
    712 H           1.4232    9.1258   20.2087 H     178  UNL178      0.1146
    713 N           1.7099    9.2666   23.4465 N.3   179  UNL179     -0.3437
    714 H           2.0668    8.7989   24.2785 H     179  UNL179      0.1146
    715 H           1.1918   10.0779   23.7809 H     179  UNL179      0.1146
    716 H           2.5257    9.6355   22.9599 H     179  UNL179      0.1146
    717 N           1.6922    9.6157   26.4162 N.3   180  UNL180     -0.3437
    718 H           1.1921    8.9535   25.8248 H     180  UNL180      0.1146
    719 H           2.3171    9.0578   26.9964 H     180  UNL180      0.1146
    720 H           2.2928   10.1520   25.7917 H     180  UNL180      0.1146
    721 N          -0.0873    9.2573   28.6729 N.3   181  UNL181     -0.3437
    722 H           0.7867    9.5093   29.1322 H     181  UNL181      0.1146
    723 H          -0.6885    8.8770   29.4025 H     181  UNL181      0.1146
    724 H          -0.5166   10.1354   28.3848 H     181  UNL181      0.1146
    725 N           1.6255    9.5987   31.4925 N.3   182  UNL182     -0.3437
    726 H           1.4672    8.7498   32.0336 H     182  UNL182      0.1146
    727 H           2.3294   10.1299   32.0031 H     182  UNL182      0.1146
    728 H           2.0722    9.3005   30.6265 H     182  UNL182      0.1146
    729 N           1.9778    9.6845   35.0418 N.3   183  UNL183     -0.3437
    730 H           1.4357    9.9132   35.8737 H     183  UNL183      0.1146
    731 H           2.7171    9.0556   35.3524 H     183  UNL183      0.1146
    732 H           1.3636    9.1257   34.4511 H     183  UNL183      0.1146
    733 N           1.6666   12.4187   -0.0068 N.3   184  UNL184     -0.3437
    734 H           1.2723   11.7680   -0.6846 H     184  UNL184      0.1146
    735 H           2.2462   11.8582    0.6164 H     184  UNL184      0.1146
    736 H           2.3090   13.0130   -0.5288 H     184  UNL184      0.1146
    737 N           1.7219   12.4132    2.6954 N.3   185  UNL185     -0.3437
    738 H           1.1345   12.0938    1.9265 H     185  UNL185      0.1146
    739 H           2.1763   11.5801    3.0666 H     185  UNL185      0.1146
    740 H           2.4615   12.9710    2.2709 H     185  UNL185      0.1146
    741 N           1.9004   12.4778    4.9278 N.3   186  UNL186     -0.3437
    742 H           1.4509   12.8018    5.7830 H     186  UNL186      0.1146
    743 H           2.7984   12.0890    5.2124 H     186  UNL186      0.1146
    744 H           1.3445   11.6894    4.5996 H     186  UNL186      0.1146
    745 N          -0.3961   12.3602    7.8455 N.3   187  UNL187     -0.3437
    746 H           0.3048   13.0995    7.8698 H     187  UNL187      0.1146
    747 H          -0.3607   11.9704    6.9047 H     187  UNL187      0.1146
    748 H          -0.0537   11.6280    8.4660 H     187  UNL187      0.1146
    749 N           1.7267   12.3797   10.6416 N.3   188  UNL188     -0.3437
    750 H           1.1071   12.0365    9.9091 H     188  UNL188      0.1146
    751 H           2.3136   11.5897   10.9060 H     188  UNL188      0.1146
    752 H           2.3468   13.0522   10.1927 H     188  UNL188      0.1146
    753 N           1.6701   12.1110   12.9034 N.3   189  UNL189     -0.3437
    754 H           2.1119   11.5645   13.6413 H     189  UNL189      0.1146
    755 H           1.2845   12.9373   13.3584 H     189  UNL189      0.1146
    756 H           2.4277   12.4452   12.3095 H     189  UNL189      0.1146
    757 N           1.6943   12.4028   15.8840 N.3   190  UNL190     -0.3437
    758 H           1.1966   11.7606   15.2690 H     190  UNL190      0.1146
    759 H           2.4100   11.8472   16.3503 H     190  UNL190      0.1146
    760 H           2.1933   13.0474   15.2726 H     190  UNL190      0.1146
    761 N           1.7354   12.1403   18.1049 N.3   191  UNL191     -0.3437
    762 H           1.0924   12.4362   18.8379 H     191  UNL191      0.1146
    763 H           2.2658   12.9705   17.8444 H     191  UNL191      0.1146
    764 H           2.4006   11.5110   18.5520 H     191  UNL191      0.1146
    765 N           2.0109   12.4494   20.7903 N.3   192  UNL192     -0.3437
    766 H           1.3517   12.9251   21.4048 H     192  UNL192      0.1146
    767 H           2.6569   11.9525   21.4021 H     192  UNL192      0.1146
    768 H           1.4747   11.7312   20.3054 H     192  UNL192      0.1146
    769 N           2.0252   12.1777   23.3780 N.3   193  UNL193     -0.3437
    770 H           1.0214   12.2275   23.2100 H     193  UNL193      0.1146
    771 H           2.3013   13.1022   23.7058 H     193  UNL193      0.1146
    772 H           2.1463   11.5506   24.1720 H     193  UNL193      0.1146
    773 N           1.6482   12.3696   26.4170 N.3   194  UNL194     -0.3437
    774 H           1.3420   11.8888   25.5723 H     194  UNL194      0.1146
    775 H           2.2169   11.6987   26.9317 H     194  UNL194      0.1146
    776 H           2.2872   13.1008   26.1081 H     194  UNL194      0.1146
    777 N           1.6496   12.2069   28.7140 N.3   195  UNL195     -0.3437
    778 H           1.3442   12.6477   29.5805 H     195  UNL195      0.1146
    779 H           2.3418   12.8350   28.3081 H     195  UNL195      0.1146
    780 H           2.1587   11.3684   28.9898 H     195  UNL195      0.1146
    781 N           1.6700   12.4486   31.6487 N.3   196  UNL196     -0.3437
    782 H           1.2608   11.6726   31.1303 H     196  UNL196      0.1146
    783 H           2.2517   12.0276   32.3718 H     196  UNL196      0.1146
    784 H           2.3116   12.9092   31.0049 H     196  UNL196      0.1146
    785 N           1.7469   12.0390   35.3228 N.3   197  UNL197     -0.3437
    786 H           1.3028   12.9334   35.5257 H     197  UNL197      0.1146
    787 H           1.7135   11.9321   34.3099 H     197  UNL197      0.1146
    788 H           2.7310   12.1536   35.5607 H     197  UNL197      0.1146
    789 N           1.6866   15.1664    0.7036 N.3   198  UNL198     -0.3437
    790 H           1.2179   14.9922   -0.1843 H     198  UNL198      0.1146
    791 H           2.1904   14.3095    0.9281 H     198  UNL198      0.1146
    792 H           2.3993   15.8690    0.5119 H     198  UNL198      0.1146
    793 N           1.6545   14.9698    2.9686 N.3   199  UNL199     -0.3437
    794 H           1.3183   15.5924    3.7019 H     199  UNL199      0.1146
    795 H           2.3103   15.5178    2.4137 H     199  UNL199      0.1146
    796 H           2.2111   14.2572    3.4385 H     199  UNL199      0.1146
    797 N           1.6785   14.8854    5.6728 N.3   200  UNL200     -0.3437
    798 H           1.2361   15.6619    6.1624 H     200  UNL200      0.1146
    799 H           2.2292   15.3028    4.9238 H     200  UNL200      0.1146
    800 H           2.3505   14.4871    6.3271 H     200  UNL200      0.1146
    801 N           1.6787   14.9207    8.2618 N.3   201  UNL201     -0.3437
    802 H           1.2371   15.5144    8.9625 H     201  UNL201      0.1146
    803 H           2.2152   15.5458    7.6620 H     201  UNL201      0.1146
    804 H           2.3632   14.3563    8.7630 H     201  UNL201      0.1146
    805 N           1.7433   14.8965   10.8657 N.3   202  UNL202     -0.3437
    806 H           2.3795   14.4310   11.5115 H     202  UNL202      0.1146
    807 H           1.0749   15.4020   11.4454 H     202  UNL202      0.1146
    808 H           2.2966   15.6077   10.3900 H     202  UNL202      0.1146
    809 N           1.8177   15.2711   13.9162 N.3   203  UNL203     -0.3437
    810 H           0.9919   14.7527   13.6200 H     203  UNL203      0.1146
    811 H           2.5177   14.5707   14.1566 H     203  UNL203      0.1146
    812 H           2.1669   15.7427   13.0831 H     203  UNL203      0.1146
    813 N           1.8713   15.0343   16.0435 N.3   204  UNL204     -0.3437
    814 H           0.9444   14.9686   16.4617 H     204  UNL204      0.1146
    815 H           2.2219   15.9610   16.2817 H     204  UNL204      0.1146
    816 H           2.4565   14.3733   16.5524 H     204  UNL204      0.1146
    817 N           1.6220   15.2228   19.0457 N.3   205  UNL205     -0.3437
    818 H           1.7383   14.3413   19.5434 H     205  UNL205      0.1146
    819 H           2.4499   15.7772   19.2592 H     205  UNL205      0.1146
    820 H           1.6840   14.9959   18.0542 H     205  UNL205      0.1146
    821 N           1.6996   14.9440   21.4230 N.3   206  UNL206     -0.3437
    822 H           1.1760   15.3740   22.1842 H     206  UNL206      0.1146
    823 H           2.2401   15.6943   20.9949 H     206  UNL206      0.1146
    824 H           2.3785   14.3249   21.8637 H     206  UNL206      0.1146
    825 N           1.6445   15.2425   24.3567 N.3   207  UNL207     -0.3437
    826 H           2.0957   14.6982   25.0906 H     207  UNL207      0.1146
    827 H           2.3758   15.8220   23.9470 H     207  UNL207      0.1146
    828 H           1.3782   14.5744   23.6349 H     207  UNL207      0.1146
    829 N          -0.0587   15.0302   29.0982 N.3   208  UNL208     -0.3437
    830 H           0.2727   15.6001   28.3212 H     208  UNL208      0.1146
    831 H          -0.8568   15.5275   29.4908 H     208  UNL208      0.1146
    832 H          -0.4349   14.1795   28.6822 H     208  UNL208      0.1146
    833 N           1.6737   15.2633   31.6630 N.3   209  UNL209     -0.3437
    834 H           1.2578   14.6007   31.0100 H     209  UNL209      0.1146
    835 H           2.1798   14.7031   32.3474 H     209  UNL209      0.1146
    836 H           2.3829   15.7701   31.1353 H     209  UNL209      0.1146
    837 N           2.0541   15.2821   35.0547 N.3   210  UNL210     -0.3437
    838 H           1.3426   14.9366   34.4123 H     210  UNL210      0.1146
    839 H           1.5499   15.6598   35.8556 H     210  UNL210      0.1146
    840 H           2.5476   14.4587   35.3964 H     210  UNL210      0.1146
    841 N           1.8398   17.8343    0.1343 N.3   211  UNL211     -0.3437
    842 H           2.8107   18.0191   -0.1140 H     211  UNL211      0.1146
    843 H           1.3182   18.6683   -0.1321 H     211  UNL211      0.1146
    844 H           1.5255   17.0946   -0.4921 H     211  UNL211      0.1146
    845 N           2.0768   17.8366    2.2861 N.3   212  UNL212     -0.3437
    846 H           2.4706   18.3248    3.0892 H     212  UNL212      0.1146
    847 H           1.6061   17.0141    2.6606 H     212  UNL212      0.1146
    848 H           1.3407   18.4407    1.9235 H     212  UNL212      0.1146
    849 N           2.0849   17.8484    4.9316 N.3   213  UNL213     -0.3437
    850 H           2.2327   18.7258    5.4282 H     213  UNL213      0.1146
    851 H           2.0190   17.1274    5.6488 H     213  UNL213      0.1146
    852 H           1.1577   17.9147    4.5141 H     213  UNL213      0.1146
    853 N           1.6844   18.0944    7.8954 N.3   214  UNL214     -0.3437
    854 H           1.2154   17.3617    7.3647 H     214  UNL214      0.1146
    855 H           2.2672   17.6157    8.5806 H     214  UNL214      0.1146
    856 H           2.3272   18.5444    7.2453 H     214  UNL214      0.1146
    857 N           1.6805   18.0733   10.5588 N.3   215  UNL215     -0.3437
    858 H           1.2264   17.3803    9.9656 H     215  UNL215      0.1146
    859 H           2.2971   17.5508   11.1795 H     215  UNL215      0.1146
    860 H           2.2903   18.6119    9.9453 H     215  UNL215      0.1146
    861 N           1.6943   18.0826   13.2060 N.3   216  UNL216     -0.3437
    862 H           1.1863   17.4266   12.6145 H     216  UNL216      0.1146
    863 H           2.2911   17.5154   13.8063 H     216  UNL216      0.1146
    864 H           2.3225   18.5916   12.5858 H     216  UNL216      0.1146
    865 N           1.6803   18.0942   15.8117 N.3   217  UNL217     -0.3437
    866 H           1.2269   17.3279   15.3163 H     217  UNL217      0.1146
    867 H           2.2819   17.6602   16.5104 H     217  UNL217      0.1146
    868 H           2.3051   18.5339   15.1374 H     217  UNL217      0.1146
    869 N           1.6367   18.0135   18.4738 N.3   218  UNL218     -0.3437
    870 H           1.4370   17.1455   17.9786 H     218  UNL218      0.1146
    871 H           2.4050   17.8038   19.1096 H     218  UNL218      0.1146
    872 H           2.0155   18.6535   17.7772 H     218  UNL218      0.1146
    873 N           1.6608   18.0421   21.1274 N.3   219  UNL219     -0.3437
    874 H           1.3157   17.2344   20.6108 H     219  UNL219      0.1146
    875 H           2.4091   17.6943   21.7252 H     219  UNL219      0.1146
    876 H           2.1086   18.6454   20.4391 H     219  UNL219      0.1146
    877 N           1.6605   18.0531   23.7571 N.3   220  UNL220     -0.3437
    878 H           1.3162   17.2088   23.3022 H     220  UNL220      0.1146
    879 H           2.4081   17.7513   24.3805 H     220  UNL220      0.1146
    880 H           2.1094   18.6030   23.0261 H     220  UNL220      0.1146
    881 N           1.6923   18.0784   26.4126 N.3   221  UNL221     -0.3437
    882 H           1.1954   17.4808   25.7535 H     221  UNL221      0.1146
    883 H           2.2386   17.4524   27.0026 H     221  UNL221      0.1146
    884 H           2.3679   18.6046   25.8604 H     221  UNL221      0.1146
    885 N           1.6941   18.1017   29.0250 N.3   222  UNL222     -0.3437
    886 H           1.1871   17.3740   28.5233 H     222  UNL222      0.1146
    887 H           2.2866   17.6180   29.6983 H     222  UNL222      0.1146
    888 H           2.3265   18.5226   28.3458 H     222  UNL222      0.1146
    889 N           1.6582   18.0644   31.6626 N.3   223  UNL223     -0.3437
    890 H           1.3025   17.2762   31.1237 H     223  UNL223      0.1146
    891 H           2.2992   17.6690   32.3491 H     223  UNL223      0.1146
    892 H           2.2343   18.6067   31.0203 H     223  UNL223      0.1146
    893 N           1.8908   18.1899   35.2530 N.3   224  UNL224     -0.3437
    894 H           2.6489   17.6356   35.6483 H     224  UNL224      0.1146
    895 H           1.9273   18.0380   34.2460 H     224  UNL224      0.1146
    896 H           1.0273   17.7527   35.5718 H     224  UNL224      0.1146
    897 N          -0.2889   20.5484   -0.3247 N.3   225  UNL225     -0.3437
    898 H          -0.8496   21.2386    0.1729 H     225  UNL225      0.1146
    899 H           0.4119   21.0764   -0.8428 H     225  UNL225      0.1146
    900 H           0.2208   20.0319    0.3907 H     225  UNL225      0.1146
    901 N           1.6867   20.6255    2.2830 N.3   226  UNL226     -0.3437
    902 H           1.2120   21.1017    3.0487 H     226  UNL226      0.1146
    903 H           2.3659   21.2909    1.9164 H     226  UNL226      0.1146
    904 H           2.2297   19.8772    2.7113 H     226  UNL226      0.1146
    905 N           1.7106   20.9162    4.9763 N.3   227  UNL227     -0.3437
    906 H           1.1442   20.2771    5.5323 H     227  UNL227      0.1146
    907 H           2.3439   21.3727    5.6312 H     227  UNL227      0.1146
    908 H           2.2955   20.3294    4.3829 H     227  UNL227      0.1146
    909 N           1.7819   20.5513    7.5497 N.3   228  UNL228     -0.3437
    910 H           1.0107   20.9593    8.0761 H     228  UNL228      0.1146
    911 H           2.3499   21.3350    7.2308 H     228  UNL228      0.1146
    912 H           2.3517   20.0497    8.2294 H     228  UNL228      0.1146
    913 N           1.6966   20.5420   10.2606 N.3   229  UNL229     -0.3437
    914 H           1.1797   21.2259   10.8115 H     229  UNL229      0.1146
    915 H           2.3194   21.0789    9.6587 H     229  UNL229      0.1146
    916 H           2.2985   20.0486   10.9185 H     229  UNL229      0.1146
    917 N           1.6897   20.5459   12.9051 N.3   230  UNL230     -0.3437
    918 H           1.1991   21.2205   13.4905 H     230  UNL230      0.1146
    919 H           2.2902   21.0925   12.2894 H     230  UNL230      0.1146
    920 H           2.3152   20.0364   13.5276 H     230  UNL230      0.1146
    921 N           1.7194   20.5415   15.5197 N.3   231  UNL231     -0.3437
    922 H           1.1231   21.1470   16.0819 H     231  UNL231      0.1146
    923 H           2.3347   21.1618   14.9952 H     231  UNL231      0.1146
    924 H           2.3170   20.0451   16.1791 H     231  UNL231      0.1146
    925 N           1.6972   20.5665   18.1572 N.3   232  UNL232     -0.3437
    926 H           1.1806   21.2048   18.7607 H     232  UNL232      0.1146
    927 H           2.3621   21.1425   17.6428 H     232  UNL232      0.1146
    928 H           2.2543   19.9816   18.7785 H     232  UNL232      0.1146
    929 N           1.6844   20.5600   20.8183 N.3   233  UNL233     -0.3437
    930 H           1.2146   21.2236   21.4325 H     233  UNL233      0.1146
    931 H           2.3087   21.1128   20.2326 H     233  UNL233      0.1146
    932 H           2.2865   19.9989   21.4191 H     233  UNL233      0.1146
    933 N           1.6941   20.5577   23.4505 N.3   234  UNL234     -0.3437
    934 H           1.1867   21.1863   24.0715 H     234  UNL234      0.1146
    935 H           2.3101   21.1490   22.8944 H     234  UNL234      0.1146
    936 H           2.3034   20.0024   24.0495 H     234  UNL234      0.1146
    937 N           1.6879   20.5379   26.1218 N.3   235  UNL235     -0.3437
    938 H           1.2042   21.2719   26.6372 H     235  UNL235      0.1146
    939 H           2.3116   21.0151   25.4724 H     235  UNL235      0.1146
    940 H           2.2905   20.0705   26.7977 H     235  UNL235      0.1146
    941 N           1.6815   20.5614   28.7429 N.3   236  UNL236     -0.3437
    942 H           1.2233   21.2257   29.3650 H     236  UNL236      0.1146
    943 H           2.3008   21.1126   28.1504 H     236  UNL236      0.1146
    944 H           2.2887   19.9956   29.3341 H     236  UNL236      0.1146
    945 N           1.6986   20.5397   31.3878 N.3   237  UNL237     -0.3437
    946 H           1.1745   21.2298   31.9239 H     237  UNL237      0.1146
    947 H           2.3269   21.0699   30.7856 H     237  UNL237      0.1146
    948 H           2.2941   20.0561   32.0585 H     237  UNL237      0.1146
    949 N           1.6151   20.5882   34.1331 N.3   238  UNL238     -0.3437
    950 H           1.7886   20.7773   35.1193 H     238  UNL238      0.1146
    951 H           1.6793   21.4880   33.6590 H     238  UNL238      0.1146
    952 H           2.4112   20.0418   33.8076 H     238  UNL238      0.1146
    953 N           1.6907   23.3928   -0.3276 N.3   239  UNL239     -0.3437
    954 H           1.1971   24.0072    0.3184 H     239  UNL239      0.1146
    955 H           2.3357   23.9887   -0.8446 H     239  UNL239      0.1146
    956 H           2.2707   22.7857    0.2498 H     239  UNL239      0.1146
    957 N           1.7132   23.3925    2.2928 N.3   240  UNL240     -0.3437
    958 H           1.1377   23.9159    2.9511 H     240  UNL240      0.1146
    959 H           2.3324   24.0745    1.8571 H     240  UNL240      0.1146
    960 H           2.3109   22.7915    2.8584 H     240  UNL240      0.1146
    961 N           1.6915   23.3411    5.0158 N.3   241  UNL241     -0.3437
    962 H           1.1981   24.0625    5.5397 H     241  UNL241      0.1146
    963 H           2.2342   23.8310    4.3060 H     241  UNL241      0.1146
    964 H           2.3704   22.9400    5.6612 H     241  UNL241      0.1146
    965 N           1.7000   23.3858    7.5916 N.3   242  UNL242     -0.3437
    966 H           1.1710   23.9376    8.2654 H     242  UNL242      0.1146
    967 H           2.2910   24.0469    7.0894 H     242  UNL242      0.1146
    968 H           2.3322   22.8041    8.1396 H     242  UNL242      0.1146
    969 N           1.6434   23.4094   10.2843 N.3   243  UNL243     -0.3437
    970 H           1.3608   24.1366   10.9399 H     243  UNL243      0.1146
    971 H           2.2600   23.8622    9.6112 H     243  UNL243      0.1146
    972 H           2.2300   22.7662   10.8140 H     243  UNL243      0.1146
    973 N           1.6734   23.4091   12.8822 N.3   244  UNL244     -0.3437
    974 H           1.2496   24.0196   13.5793 H     244  UNL244      0.1146
    975 H           2.3166   23.9938   12.3505 H     244  UNL244      0.1146
    976 H           2.2546   22.7519   13.4007 H     244  UNL244      0.1146
    977 N           1.6477   23.4321   15.5393 N.3   245  UNL245     -0.3437
    978 H           1.3607   24.1736   16.1766 H     245  UNL245      0.1146
    979 H           2.3707   23.8361   14.9456 H     245  UNL245      0.1146
    980 H           2.1151   22.7327   16.1144 H     245  UNL245      0.1146
    981 N           1.6807   23.4149   18.1514 N.3   246  UNL246     -0.3437
    982 H           1.2390   24.0805   18.7841 H     246  UNL246      0.1146
    983 H           2.4063   23.9343   17.6593 H     246  UNL246      0.1146
    984 H           2.1682   22.7448   18.7444 H     246  UNL246      0.1146
    985 N           1.6944   23.3895   20.7981 N.3   247  UNL247     -0.3437
    986 H           1.1861   23.9878   21.4478 H     247  UNL247      0.1146
    987 H           2.3248   24.0040   20.2848 H     247  UNL247      0.1146
    988 H           2.2890   22.7931   21.3718 H     247  UNL247      0.1146
    989 N           1.6751   23.3960   23.4546 N.3   248  UNL248     -0.3437
    990 H           1.2434   24.0386   24.1172 H     248  UNL248      0.1146
    991 H           2.3061   23.9599   22.8868 H     248  UNL248      0.1146
    992 H           2.2696   22.7800   24.0073 H     248  UNL248      0.1146
    993 N           1.6511   23.4197   26.1072 N.3   249  UNL249     -0.3437
    994 H           1.3295   24.0647   26.8276 H     249  UNL249      0.1146
    995 H           2.2788   23.9559   25.5099 H     249  UNL249      0.1146
    996 H           2.2348   22.7342   26.5844 H     249  UNL249      0.1146
    997 N           1.6995   23.3810   28.7231 N.3   250  UNL250     -0.3437
    998 H           1.1722   23.9896   29.3476 H     250  UNL250      0.1146
    999 H           2.3259   23.9908   28.1994 H     250  UNL250      0.1146
   1000 H           2.2966   22.8131   29.3224 H     250  UNL250      0.1146
   1001 N           1.6111   23.4701   31.4244 N.3   251  UNL251     -0.3437
   1002 H           1.5321   23.9119   32.3393 H     251  UNL251      0.1146
   1003 H           2.1267   24.1261   30.8394 H     251  UNL251      0.1146
   1004 H           2.2242   22.6663   31.5526 H     251  UNL251      0.1146
   1005 N           2.1621   23.4798   35.1758 N.3   252  UNL252     -0.3437
   1006 H           1.9672   24.3991   35.5698 H     252  UNL252      0.1146
   1007 H           1.6194   22.8169   35.7275 H     252  UNL252      0.1146
   1008 H           1.7454   23.4787   34.2459 H     252  UNL252      0.1146
   1009 N           1.6631   26.4692    0.0276 N.3   253  UNL253     -0.3437
   1010 H           1.2859   25.9230   -0.7455 H     253  UNL253      0.1146
   1011 H           2.3186   25.8566    0.5107 H     253  UNL253      0.1146
   1012 H           2.2266   27.2046   -0.3967 H     253  UNL253      0.1146
   1013 N           1.6991   26.5129    2.6758 N.3   254  UNL254     -0.3437
   1014 H           1.1741   25.9308    2.0247 H     254  UNL254      0.1146
   1015 H           2.3424   25.8861    3.1571 H     254  UNL254      0.1146
   1016 H           2.2787   27.1237    2.1019 H     254  UNL254      0.1146
   1017 N           1.6830   26.4904    5.3175 N.3   255  UNL255     -0.3437
   1018 H           1.2250   25.8808    4.6415 H     255  UNL255      0.1146
   1019 H           2.3753   25.9130    5.7926 H     255  UNL255      0.1146
   1020 H           2.2109   27.1693    4.7710 H     255  UNL255      0.1146
   1021 N           1.6935   26.4755    7.9774 N.3   256  UNL256     -0.3437
   1022 H           1.1889   26.0908    7.1801 H     256  UNL256      0.1146
   1023 H           2.2761   25.7187    8.3329 H     256  UNL256      0.1146
   1024 H           2.3357   27.1685    7.5956 H     256  UNL256      0.1146
   1025 N           1.6768   26.3642   10.1917 N.3   257  UNL257     -0.3437
   1026 H           1.2380   26.3382   11.1111 H     257  UNL257      0.1146
   1027 H           2.2751   27.1891   10.1893 H     257  UNL257      0.1146
   1028 H           2.3043   25.5621   10.1573 H     257  UNL257      0.1146
   1029 N           1.6733   26.5286   13.1945 N.3   258  UNL258     -0.3437
   1030 H           1.2532   25.7607   12.6727 H     258  UNL258      0.1146
   1031 H           2.3493   26.1021   13.8266 H     258  UNL258      0.1146
   1032 H           2.2184   27.0622   12.5189 H     258  UNL258      0.1146
   1033 N           1.6908   26.4732   15.8987 N.3   259  UNL259     -0.3437
   1034 H           1.1968   26.0078   15.1387 H     259  UNL259      0.1146
   1035 H           2.3380   25.7831   16.2773 H     259  UNL259      0.1146
   1036 H           2.2686   27.1895   15.4611 H     259  UNL259      0.1146
   1037 N           1.7071   26.2588   18.1141 N.3   260  UNL260     -0.3437
   1038 H           1.1551   26.6940   18.8518 H     260  UNL260      0.1146
   1039 H           2.3714   26.9672   17.8053 H     260  UNL260      0.1146
   1040 H           2.2606   25.5336   18.5681 H     260  UNL260      0.1146
   1041 N           1.6852   26.2126   20.8048 N.3   261  UNL261     -0.3437
   1042 H           1.2126   26.8395   21.4544 H     261  UNL261      0.1146
   1043 H           2.3249   26.7956   20.2669 H     261  UNL261      0.1146
   1044 H           2.2715   25.6059   21.3763 H     261  UNL261      0.1146
   1045 N           1.6671   26.2265   23.4553 N.3   262  UNL262     -0.3437
   1046 H           1.2710   26.8740   24.1351 H     262  UNL262      0.1146
   1047 H           2.3112   26.7749   22.8871 H     262  UNL262      0.1146
   1048 H           2.2450   25.5782   23.9883 H     262  UNL262      0.1146
   1049 N           1.6928   26.2236   26.0698 N.3   263  UNL263     -0.3437
   1050 H           1.1907   26.7265   26.8001 H     263  UNL263      0.1146
   1051 H           2.2826   26.9143   25.6077 H     263  UNL263      0.1146
   1052 H           2.3281   25.5891   26.5516 H     263  UNL263      0.1146
   1053 N           1.6488   26.2323   28.7579 N.3   264  UNL264     -0.3437
   1054 H           1.3448   26.9903   29.3673 H     264  UNL264      0.1146
   1055 H           2.3276   26.6417   28.1177 H     264  UNL264      0.1146
   1056 H           2.1730   25.5893   29.3495 H     264  UNL264      0.1146
   1057 N           1.6414   26.2399   31.4040 N.3   265  UNL265     -0.3437
   1058 H           1.3728   26.9759   32.0555 H     265  UNL265      0.1146
   1059 H           2.2953   26.6682   30.7503 H     265  UNL265      0.1146
   1060 H           2.1847   25.5695   31.9460 H     265  UNL265      0.1146
   1061 N           1.7257   26.6099   34.1110 N.3   266  UNL266     -0.3437
   1062 H           1.8146   26.4712   35.1166 H     266  UNL266      0.1146
   1063 H           2.6753   26.6040   33.7416 H     266  UNL266      0.1146
   1064 H           1.2786   25.7684   33.7498 H     266  UNL266      0.1146
   1065 N           1.7134   30.0496   -0.3605 N.3   267  UNL267     -0.3437
   1066 H           1.1399   30.5687    0.3029 H     267  UNL267      0.1146
   1067 H           2.3795   30.7204   -0.7410 H     267  UNL267      0.1146
   1068 H           2.2613   29.3939    0.1947 H     267  UNL267      0.1146
   1069 N           1.6522   30.0638    2.3345 N.3   268  UNL268     -0.3437
   1070 H           1.3346   30.7795    2.9866 H     268  UNL268      0.1146
   1071 H           2.3513   30.5121    1.7440 H     268  UNL268      0.1146
   1072 H           2.1560   29.3774    2.8943 H     268  UNL268      0.1146
   1073 N           1.6608   30.0943    4.9458 N.3   269  UNL269     -0.3437
   1074 H           1.2930   30.5484    5.7806 H     269  UNL269      0.1146
   1075 H           2.2989   30.7647    4.5194 H     269  UNL269      0.1146
   1076 H           2.2415   29.3253    5.2770 H     269  UNL269      0.1146
   1077 N           1.5816   29.1373    7.7660 N.3   270  UNL270     -0.3437
   1078 H           1.8244   30.1259    7.8118 H     270  UNL270      0.1146
   1079 H           2.0540   28.7700    6.9412 H     270  UNL270      0.1146
   1080 H           2.0343   28.6995    8.5671 H     270  UNL270      0.1146
   1081 N           1.6960   30.1014   10.1905 N.3   271  UNL271     -0.3437
   1082 H           1.1827   30.4602   10.9944 H     271  UNL271      0.1146
   1083 H           2.3484   30.8371    9.9227 H     271  UNL271      0.1146
   1084 H           2.2671   29.3340   10.5416 H     271  UNL271      0.1146
   1085 N           1.6875   30.1012   12.8386 N.3   272  UNL272     -0.3437
   1086 H           1.2063   30.4674   13.6588 H     272  UNL272      0.1146
   1087 H           2.3335   30.8316   12.5426 H     272  UNL272      0.1146
   1088 H           2.2669   29.3325   13.1727 H     272  UNL272      0.1146
   1089 N           1.5820   30.2029   15.6494 N.3   273  UNL273     -0.3437
   1090 H           1.8347   30.2587   16.6350 H     273  UNL273      0.1146
   1091 H           2.1029   30.9444   15.1834 H     273  UNL273      0.1146
   1092 H           1.9746   29.3267   15.3080 H     273  UNL273      0.1146
   1093 N           0.0262   29.0896   18.0996 N.3   274  UNL274     -0.3437
   1094 H           0.0154   30.1051   18.1839 H     274  UNL274      0.1146
   1095 H           0.4029   28.7387   18.9790 H     274  UNL274      0.1146
   1096 H          -0.9503   28.7993   18.0767 H     274  UNL274      0.1146
   1097 N          -0.3759   30.1671   21.1334 N.3   275  UNL275     -0.3437
   1098 H           0.1680   29.3061   21.1676 H     275  UNL275      0.1146
   1099 H           0.2474   30.9061   21.4556 H     275  UNL275      0.1146
   1100 H          -0.5452   30.3533   20.1459 H     275  UNL275      0.1146
   1101 N           1.7137   30.3283   23.4145 N.3   276  UNL276     -0.3437
   1102 H           1.1577   30.0225   24.2118 H     276  UNL276      0.1146
   1103 H           2.4695   30.8932   23.7993 H     276  UNL276      0.1146
   1104 H           2.1534   29.4887   23.0402 H     276  UNL276      0.1146
   1105 N           1.6960   30.1014   26.0355 N.3   277  UNL277     -0.3437
   1106 H           1.1827   30.4602   26.8394 H     277  UNL277      0.1146
   1107 H           2.3484   30.8371   25.7677 H     277  UNL277      0.1146
   1108 H           2.2671   29.3340   26.3866 H     277  UNL277      0.1146
   1109 N           1.6799   30.1014   28.6903 N.3   278  UNL278     -0.3437
   1110 H           1.2285   30.4602   29.5305 H     278  UNL278      0.1146
   1111 H           2.3102   30.8371   28.3742 H     278  UNL278      0.1146
   1112 H           2.2757   29.3340   28.9975 H     278  UNL278      0.1146
   1113 N           1.5862   30.2518   31.5307 N.3   279  UNL279     -0.3437
   1114 H           1.9656   30.2576   32.4764 H     279  UNL279      0.1146
   1115 H           2.1616   30.8986   30.9932 H     279  UNL279      0.1146
   1116 H           1.7809   29.3246   31.1556 H     279  UNL279      0.1146
   1117 N           1.6331   30.1839   35.0079 N.3   280  UNL280     -0.3437
   1118 H           1.4677   30.6096   35.9188 H     280  UNL280      0.1146
   1119 H           2.4131   30.6946   34.5966 H     280  UNL280      0.1146
   1120 H           1.9803   29.2445   35.1957 H     280  UNL280      0.1146
   1121 N           4.2062    0.8350   -0.3095 N.3   281  UNL281     -0.3437
   1122 H           3.7780    1.5117    0.3206 H     281  UNL281      0.1146
   1123 H           4.8550    1.3637   -0.8908 H     281  UNL281      0.1146
   1124 H           4.7818    0.2312    0.2759 H     281  UNL281      0.1146
   1125 N           4.6090    0.8485    2.6545 N.3   282  UNL282     -0.3437
   1126 H           3.9128    1.3376    3.2153 H     282  UNL282      0.1146
   1127 H           4.0887    0.2072    2.0575 H     282  UNL282      0.1146
   1128 H           5.0104    1.5484    2.0321 H     282  UNL282      0.1146
   1129 N           4.2962    1.1419    5.3565 N.3   283  UNL283     -0.3437
   1130 H           3.5696    0.6918    4.8016 H     283  UNL283      0.1146
   1131 H           4.9210    0.3960    5.6592 H     283  UNL283      0.1146
   1132 H           4.8342    1.7120    4.7054 H     283  UNL283      0.1146
   1133 N           4.2016    1.0903    7.9583 N.3   284  UNL284     -0.3437
   1134 H           3.7920    0.6269    7.1485 H     284  UNL284      0.1146
   1135 H           4.8184    0.4049    8.3920 H     284  UNL284      0.1146
   1136 H           4.8090    1.8195    7.5872 H     284  UNL284      0.1146
   1137 N           4.2269    0.8585   10.2137 N.3   285  UNL285     -0.3437
   1138 H           3.7154    1.3481   10.9465 H     285  UNL285      0.1146
   1139 H           4.8518    1.5481    9.7986 H     285  UNL285      0.1146
   1140 H           4.8269    0.1870   10.6906 H     285  UNL285      0.1146
   1141 N           4.1740    1.1611   12.9982 N.3   286  UNL286     -0.3437
   1142 H           3.8977    0.2122   13.2462 H     286  UNL286      0.1146
   1143 H           4.7495    1.4967   13.7693 H     286  UNL286      0.1146
   1144 H           4.7998    1.0716   12.1990 H     286  UNL286      0.1146
   1145 N           4.2337    0.9796   15.9346 N.3   287  UNL287     -0.3437
   1146 H           4.8064    0.1423   15.8387 H     287  UNL287      0.1146
   1147 H           4.8824    1.7655   15.9318 H     287  UNL287      0.1146
   1148 H           3.6985    1.0543   15.0707 H     287  UNL287      0.1146
   1149 N           4.2391    0.8639   18.1227 N.3   288  UNL288     -0.3437
   1150 H           3.6909    1.3988   18.7948 H     288  UNL288      0.1146
   1151 H           4.9388    1.5074   17.7554 H     288  UNL288      0.1146
   1152 H           4.7523    0.1716   18.6664 H     288  UNL288      0.1146
   1153 N           4.6309    0.8996   21.1462 N.3   289  UNL289     -0.3437
   1154 H           4.9362    1.2891   20.2555 H     289  UNL289      0.1146
   1155 H           4.0561    1.6179   21.5845 H     289  UNL289      0.1146
   1156 H           3.9978    0.1350   20.9162 H     289  UNL289      0.1146
   1157 N           4.5732    0.8518   23.8198 N.3   290  UNL290     -0.3437
   1158 H           5.1127    1.4450   23.1909 H     290  UNL290      0.1146
   1159 H           3.8604    1.4531   24.2305 H     290  UNL290      0.1146
   1160 H           4.0748    0.1917   23.2246 H     290  UNL290      0.1146
   1161 N           4.1887    1.1150   26.4112 N.3   291  UNL291     -0.3437
   1162 H           3.8406    0.4329   25.7390 H     291  UNL291      0.1146
   1163 H           4.8482    0.6135   27.0044 H     291  UNL291      0.1146
   1164 H           4.7435    1.7803   25.8746 H     291  UNL291      0.1146
   1165 N           4.1925    1.0992   29.0690 N.3   292  UNL292     -0.3437
   1166 H           3.8236    0.5714   28.2792 H     292  UNL292      0.1146
   1167 H           4.8035    0.4587   29.5740 H     292  UNL292      0.1146
   1168 H           4.8014    1.8124   28.6702 H     292  UNL292      0.1146
   1169 N           2.4889    0.9776   31.7286 N.3   293  UNL293     -0.3437
   1170 H           2.4152    1.8683   31.2390 H     293  UNL293      0.1146
   1171 H           1.5889    0.8320   32.1837 H     293  UNL293      0.1146
   1172 H           2.5561    0.2638   31.0044 H     293  UNL293      0.1146
   1173 N           4.2179   -0.7924   35.1258 N.3   294  UNL294     -0.3437
   1174 H           3.9123   -1.3874   35.8944 H     294  UNL294      0.1146
   1175 H           5.1516   -0.4691   35.3749 H     294  UNL294      0.1146
   1176 H           4.3391   -1.4094   34.3239 H     294  UNL294      0.1146
   1177 N           4.2032    3.9742   -0.0169 N.3   295  UNL295     -0.3437
   1178 H           3.7898    3.3032   -0.6628 H     295  UNL295      0.1146
   1179 H           4.7578    3.4269    0.6398 H     295  UNL295      0.1146
   1180 H           4.8703    4.5164   -0.5640 H     295  UNL295      0.1146
   1181 N           4.3031    3.9738    2.7101 N.3   296  UNL296     -0.3437
   1182 H           3.5604    3.6136    2.1127 H     296  UNL296      0.1146
   1183 H           4.8160    3.1586    3.0430 H     296  UNL296      0.1146
   1184 H           4.9415    4.4747    2.0937 H     296  UNL296      0.1146
   1185 N           4.2238    3.9461    5.3167 N.3   297  UNL297     -0.3437
   1186 H           3.7294    3.3205    4.6823 H     297  UNL297      0.1146
   1187 H           4.9129    3.3704    5.7985 H     297  UNL297      0.1146
   1188 H           4.7549    4.5837    4.7252 H     297  UNL297      0.1146
   1189 N           4.2069    3.9612    7.9254 N.3   298  UNL298     -0.3437
   1190 H           3.7746    3.2930    7.2890 H     298  UNL298      0.1146
   1191 H           4.8302    3.4185    8.5216 H     298  UNL298      0.1146
   1192 H           4.8093    4.5480    7.3499 H     298  UNL298      0.1146
   1193 N           4.2025    3.9637   10.5577 N.3   299  UNL299     -0.3437
   1194 H           3.8210    3.1076   10.1578 H     299  UNL299      0.1146
   1195 H           4.9776    3.6747   11.1527 H     299  UNL299      0.1146
   1196 H           4.6199    4.4747    9.7812 H     299  UNL299      0.1146
   1197 N           4.1911    3.8112   12.8495 N.3   300  UNL300     -0.3437
   1198 H           3.8297    3.7407   13.7997 H     300  UNL300      0.1146
   1199 H           4.7750    4.6462   12.8324 H     300  UNL300      0.1146
   1200 H           4.8253    3.0226   12.7310 H     300  UNL300      0.1146
   1201 N           4.2726    3.5953   15.8545 N.3   301  UNL301     -0.3437
   1202 H           3.6117    4.2493   15.4374 H     301  UNL301      0.1146
   1203 H           4.8173    3.2153   15.0816 H     301  UNL301      0.1146
   1204 H           4.9194    4.1609   16.4024 H     301  UNL301      0.1146
   1205 N           4.2083    3.6330   18.4725 N.3   302  UNL302     -0.3437
   1206 H           3.7705    4.3697   17.9211 H     302  UNL302      0.1146
   1207 H           4.8022    3.1143   17.8269 H     302  UNL302      0.1146
   1208 H           4.8401    4.1037   19.1187 H     302  UNL302      0.1146
   1209 N           4.1947    3.6940   21.1508 N.3   303  UNL303     -0.3437
   1210 H           4.9501    4.1350   21.6736 H     303  UNL303      0.1146
   1211 H           3.8414    4.4060   20.5131 H     303  UNL303      0.1146
   1212 H           4.6348    2.9858   20.5650 H     303  UNL303      0.1146
   1213 N           4.2252    3.9084   23.4060 N.3   304  UNL304     -0.3437
   1214 H           3.7236    3.6030   24.2388 H     304  UNL304      0.1146
   1215 H           4.8997    4.6033   23.7233 H     304  UNL304      0.1146
   1216 H           4.7725    3.1061   23.0978 H     304  UNL304      0.1146
   1217 N           4.2094    3.9759   26.3983 N.3   305  UNL305     -0.3437
   1218 H           3.7691    3.2200   25.8757 H     305  UNL305      0.1146
   1219 H           4.8723    3.5306   27.0314 H     305  UNL305      0.1146
   1220 H           4.7702    4.4942   25.7237 H     305  UNL305      0.1146
   1221 N           4.1865    3.9141   29.0645 N.3   306  UNL306     -0.3437
   1222 H           3.8495    3.3061   28.3194 H     306  UNL306      0.1146
   1223 H           4.8510    3.3586   29.6014 H     306  UNL306      0.1146
   1224 H           4.7339    4.6419   28.6072 H     306  UNL306      0.1146
   1225 N           4.1857    3.7018   31.3702 N.3   307  UNL307     -0.3437
   1226 H           3.8593    4.0565   32.2680 H     307  UNL307      0.1146
   1227 H           4.6914    4.4702   30.9317 H     307  UNL307      0.1146
   1228 H           4.8846    2.9923   31.5857 H     307  UNL307      0.1146
   1229 N           4.1939    1.7545   34.3801 N.3   308  UNL308     -0.3437
   1230 H           3.8433    2.2282   33.5488 H     308  UNL308      0.1146
   1231 H           4.6373    0.8986   34.0496 H     308  UNL308      0.1146
   1232 H           4.9464    2.3395   34.7405 H     308  UNL308      0.1146
   1233 N           4.2068    6.4265   -0.2439 N.3   309  UNL309     -0.3437
   1234 H           3.7876    7.1759    0.3049 H     309  UNL309      0.1146
   1235 H           4.6983    6.8819   -1.0117 H     309  UNL309      0.1146
   1236 H           4.9283    6.0156    0.3468 H     309  UNL309      0.1146
   1237 N           4.6028    6.4715    2.6474 N.3   310  UNL310     -0.3437
   1238 H           4.1082    7.1663    3.2050 H     310  UNL310      0.1146
   1239 H           3.8837    5.8801    2.2332 H     310  UNL310      0.1146
   1240 H           5.0263    6.9820    1.8738 H     310  UNL310      0.1146
   1241 N           4.2639    6.7504    5.3580 N.3   311  UNL311     -0.3437
   1242 H           3.6355    6.2504    4.7307 H     311  UNL311      0.1146
   1243 H           4.9632    6.0713    5.6550 H     311  UNL311      0.1146
   1244 H           4.7583    7.4277    4.7790 H     311  UNL311      0.1146
   1245 N           4.2170    6.7446    7.9655 N.3   312  UNL312     -0.3437
   1246 H           3.7440    6.2379    7.2186 H     312  UNL312      0.1146
   1247 H           4.8561    6.0779    8.3962 H     312  UNL312      0.1146
   1248 H           4.8038    7.4394    7.5058 H     312  UNL312      0.1146
   1249 N           4.2282    6.4665   10.2366 N.3   313  UNL313     -0.3437
   1250 H           3.7213    6.9394   10.9834 H     313  UNL313      0.1146
   1251 H           4.7325    7.1954    9.7339 H     313  UNL313      0.1146
   1252 H           4.9390    5.8985   10.6954 H     313  UNL313      0.1146
   1253 N           4.2266    6.8440   12.9667 N.3   314  UNL314     -0.3437
   1254 H           3.7166    6.0348   13.3181 H     314  UNL314      0.1146
   1255 H           4.8595    7.1236   13.7148 H     314  UNL314      0.1146
   1256 H           4.8184    6.4974   12.2131 H     314  UNL314      0.1146
   1257 N           4.1811    6.5276   15.8602 N.3   315  UNL315     -0.3437
   1258 H           4.7690    5.7725   15.5100 H     315  UNL315      0.1146
   1259 H           4.8031    7.1562   16.3665 H     315  UNL315      0.1146
   1260 H           3.8679    7.0435   15.0392 H     315  UNL315      0.1146
   1261 N           4.2480    6.6080   18.0851 N.3   316  UNL316     -0.3437
   1262 H           3.6779    6.8501   18.8942 H     316  UNL316      0.1146
   1263 H           4.9846    7.3107   18.0401 H     316  UNL316      0.1146
   1264 H           4.7106    5.7309   18.3198 H     316  UNL316      0.1146
   1265 N           4.2384    6.4288   20.8306 N.3   317  UNL317     -0.3437
   1266 H           3.6885    7.0641   21.4070 H     317  UNL317      0.1146
   1267 H           4.7858    7.0190   20.2058 H     317  UNL317      0.1146
   1268 H           4.9084    5.9879   21.4591 H     317  UNL317      0.1146
   1269 N           4.6147    6.6898   23.4182 N.3   318  UNL318     -0.3437
   1270 H           4.1036    7.5125   23.7349 H     318  UNL318      0.1146
   1271 H           4.9894    6.2513   24.2583 H     318  UNL318      0.1146
   1272 H           3.9134    6.0462   23.0545 H     318  UNL318      0.1146
   1273 N           4.2010    6.7649   26.4187 N.3   319  UNL319     -0.3437
   1274 H           3.7944    6.1315   25.7317 H     319  UNL319      0.1146
   1275 H           4.8307    6.1983   26.9851 H     319  UNL319      0.1146
   1276 H           4.7949    7.4051   25.8936 H     319  UNL319      0.1146
   1277 N           4.2139    6.7623   29.0767 N.3   320  UNL320     -0.3437
   1278 H           3.7531    6.1844   28.3752 H     320  UNL320      0.1146
   1279 H           4.8472    6.1422   29.5796 H     320  UNL320      0.1146
   1280 H           4.8068    7.4109   28.5609 H     320  UNL320      0.1146
   1281 N           2.1840    6.7508   31.6893 N.3   321  UNL321     -0.3437
   1282 H           2.8357    6.2506   32.2922 H     321  UNL321      0.1146
   1283 H           2.7432    7.4269   31.1710 H     321  UNL321      0.1146
   1284 H           1.8580    6.0715   31.0033 H     321  UNL321      0.1146
   1285 N           4.1565    4.5019   34.2816 N.3   322  UNL322     -0.3437
   1286 H           3.9803    5.2639   33.6284 H     322  UNL322      0.1146
   1287 H           4.7501    3.8385   33.7857 H     322  UNL322      0.1146
   1288 H           4.7340    4.8955   35.0232 H     322  UNL322      0.1146
   1289 N           2.5162    9.5956   -0.1618 N.3   323  UNL323     -0.3437
   1290 H           2.2072    9.2775   -1.0793 H     323  UNL323      0.1146
   1291 H           1.7471   10.1454    0.2185 H     323  UNL323      0.1146
   1292 H           2.5784    8.7605    0.4188 H     323  UNL323      0.1146
   1293 N           4.1934    9.2768    2.3704 N.3   324  UNL324     -0.3437
   1294 H           4.9002    8.7302    2.8604 H     324  UNL324      0.1146
   1295 H           3.8312    9.9427    3.0513 H     324  UNL324      0.1146
   1296 H           4.6962    9.8292    1.6773 H     324  UNL324      0.1146
   1297 N           4.2096    9.5753    5.3097 N.3   325  UNL325     -0.3437
   1298 H           3.7665    9.0057    4.5903 H     325  UNL325      0.1146
   1299 H           4.8460    8.9542    5.8074 H     325  UNL325      0.1146
   1300 H           4.7989   10.2437    4.8153 H     325  UNL325      0.1146
   1301 N           4.2244    9.5874    7.9568 N.3   326  UNL326     -0.3437
   1302 H           3.7293    8.9471    7.3377 H     326  UNL326      0.1146
   1303 H           4.9226    9.0255    8.4419 H     326  UNL326      0.1146
   1304 H           4.7448   10.2190    7.3496 H     326  UNL326      0.1146
   1305 N           4.1681    9.5490   10.5547 N.3   327  UNL327     -0.3437
   1306 H           3.9309    8.8465    9.8557 H     327  UNL327      0.1146
   1307 H           4.8404    9.1072   11.1801 H     327  UNL327      0.1146
   1308 H           4.6816   10.2763   10.0589 H     327  UNL327      0.1146
   1309 N           4.2077    9.5866   13.2211 N.3   328  UNL328     -0.3437
   1310 H           3.7730    9.0281   12.4880 H     328  UNL328      0.1146
   1311 H           4.7902    8.9439   13.7558 H     328  UNL328      0.1146
   1312 H           4.8501   10.2203   12.7477 H     328  UNL328      0.1146
   1313 N           4.1869    9.3398   15.5245 N.3   329  UNL329     -0.3437
   1314 H           3.8721    9.5956   16.4593 H     329  UNL329      0.1146
   1315 H           4.6206   10.1760   15.1357 H     329  UNL329      0.1146
   1316 H           4.9413    8.6676   15.6563 H     329  UNL329      0.1146
   1317 N           4.6094    9.3006   18.4927 N.3   330  UNL330     -0.3437
   1318 H           5.0027    9.7806   17.6844 H     330  UNL330      0.1146
   1319 H           4.1238   10.0142   19.0343 H     330  UNL330      0.1146
   1320 H           3.8851    8.6836   18.1279 H     330  UNL330      0.1146
   1321 N           4.6331    9.5413   20.8140 N.3   331  UNL331     -0.3437
   1322 H           3.9802   10.2845   21.0583 H     331  UNL331      0.1146
   1323 H           4.9248    9.1226   21.6961 H     331  UNL331      0.1146
   1324 H           4.0829    8.8305   20.3341 H     331  UNL331      0.1146
   1325 N           4.5132    9.6426   23.8076 N.3   332  UNL332     -0.3437
   1326 H           4.1786   10.0699   22.9452 H     332  UNL332      0.1146
   1327 H           3.7252    9.1186   24.1856 H     332  UNL332      0.1146
   1328 H           5.2039    8.9479   23.5274 H     332  UNL332      0.1146
   1329 N           4.2388    9.6170   26.4304 N.3   333  UNL333     -0.3437
   1330 H           3.6844    8.9989   25.8396 H     333  UNL333      0.1146
   1331 H           4.8643    9.0122   26.9608 H     333  UNL333      0.1146
   1332 H           4.8336   10.1508   25.7982 H     333  UNL333      0.1146
   1333 N           4.2434    9.6593   29.0212 N.3   334  UNL334     -0.3437
   1334 H           3.6738    8.9507   28.5610 H     334  UNL334      0.1146
   1335 H           4.8181    9.1609   29.6992 H     334  UNL334      0.1146
   1336 H           4.8857   10.0081   28.3111 H     334  UNL334      0.1146
   1337 N           4.2376    9.5989   31.7273 N.3   335  UNL335     -0.3437
   1338 H           3.6876    9.0331   31.0825 H     335  UNL335      0.1146
   1339 H           4.8689    8.9532   32.1993 H     335  UNL335      0.1146
   1340 H           4.8269   10.1938   31.1466 H     335  UNL335      0.1146
   1341 N           4.4806    7.1608   34.2127 N.3   336  UNL336     -0.3437
   1342 H           3.6280    7.2815   33.6679 H     336  UNL336      0.1146
   1343 H           5.1977    7.7064   33.7367 H     336  UNL336      0.1146
   1344 H           4.3147    7.6303   35.1018 H     336  UNL336      0.1146
   1345 N           4.2256   12.1134    0.3102 N.3   337  UNL337     -0.3437
   1346 H           3.7190   12.6669    0.9997 H     337  UNL337      0.1146
   1347 H           4.8243   12.7684   -0.1908 H     337  UNL337      0.1146
   1348 H           4.8521   11.5094    0.8403 H     337  UNL337      0.1146
   1349 N           4.1815   12.1593    2.9687 N.3   338  UNL338     -0.3437
   1350 H           3.8744   12.5491    3.8587 H     338  UNL338      0.1146
   1351 H           4.6931   12.9040    2.4974 H     338  UNL338      0.1146
   1352 H           4.8720   11.4457    3.1979 H     338  UNL338      0.1146
   1353 N           2.2672   12.5197    7.7151 N.3   339  UNL339     -0.3437
   1354 H           1.7505   11.9272    8.3634 H     339  UNL339      0.1146
   1355 H           3.1885   12.6531    8.1297 H     339  UNL339      0.1146
   1356 H           2.4148   11.9580    6.8778 H     339  UNL339      0.1146
   1357 N           4.2047   12.4005   10.5817 N.3   340  UNL340     -0.3437
   1358 H           3.7818   11.8356    9.8466 H     340  UNL340      0.1146
   1359 H           4.8048   11.7693   11.1109 H     340  UNL340      0.1146
   1360 H           4.8298   13.0527   10.1102 H     340  UNL340      0.1146
   1361 N           4.2040   12.4475   13.1688 N.3   341  UNL341     -0.3437
   1362 H           3.7883   11.6112   12.7611 H     341  UNL341      0.1146
   1363 H           4.8793   12.1183   13.8573 H     341  UNL341      0.1146
   1364 H           4.7495   12.8810   12.4254 H     341  UNL341      0.1146
   1365 N           4.2312   12.3961   15.8934 N.3   342  UNL342     -0.3437
   1366 H           3.7051   11.9650   15.1347 H     342  UNL342      0.1146
   1367 H           4.8018   11.6542   16.2965 H     342  UNL342      0.1146
   1368 H           4.8829   13.0428   15.4513 H     342  UNL342      0.1146
   1369 N           4.5915   12.3597   18.1260 N.3   343  UNL343     -0.3437
   1370 H           3.6642   12.1484   17.7603 H     343  UNL343      0.1146
   1371 H           4.4513   13.0420   18.8698 H     343  UNL343      0.1146
   1372 H           4.9139   11.5080   18.5832 H     343  UNL343      0.1146
   1373 N           4.6180   12.4275   20.8510 N.3   344  UNL344     -0.3437
   1374 H           3.9936   12.0044   20.1659 H     344  UNL344      0.1146
   1375 H           4.0230   12.9681   21.4773 H     344  UNL344      0.1146
   1376 H           4.9864   11.6581   21.4083 H     344  UNL344      0.1146
   1377 N           4.2030   12.2696   23.4010 N.3   345  UNL345     -0.3437
   1378 H           3.8026   12.0512   24.3122 H     345  UNL345      0.1146
   1379 H           4.6835   13.1614   23.5118 H     345  UNL345      0.1146
   1380 H           4.9320   11.5758   23.2409 H     345  UNL345      0.1146
   1381 N           4.2861   12.4530   26.4513 N.3   346  UNL346     -0.3437
   1382 H           3.5878   11.8841   25.9749 H     346  UNL346      0.1146
   1383 H           4.9339   11.7972   26.8857 H     346  UNL346      0.1146
   1384 H           4.8132   12.9237   25.7172 H     346  UNL346      0.1146
   1385 N           4.2018   12.2283   28.6868 N.3   347  UNL347     -0.3437
   1386 H           3.8336   12.0581   29.6216 H     347  UNL347      0.1146
   1387 H           4.5884   13.1710   28.7045 H     347  UNL347      0.1146
   1388 H           4.9973   11.6006   28.5796 H     347  UNL347      0.1146
   1389 N           4.2276   12.4700   31.6555 N.3   348  UNL348     -0.3437
   1390 H           3.7140   11.6852   31.2573 H     348  UNL348      0.1146
   1391 H           4.8679   12.0688   32.3392 H     348  UNL348      0.1146
   1392 H           4.8115   12.8340   30.9038 H     348  UNL348      0.1146
   1393 N           4.1400   10.3771   34.2456 N.3   349  UNL349     -0.3437
   1394 H           4.0839    9.4348   33.8618 H     349  UNL349      0.1146
   1395 H           4.7537   10.3140   35.0566 H     349  UNL349      0.1146
   1396 H           4.6434   10.9321   33.5550 H     349  UNL349      0.1146
   1397 N           4.2150   15.2281    0.0236 N.3   350  UNL350     -0.3437
   1398 H           3.7498   14.6312   -0.6588 H     350  UNL350      0.1146
   1399 H           4.8459   14.6205    0.5444 H     350  UNL350      0.1146
   1400 H           4.8104   15.8572   -0.5131 H     350  UNL350      0.1146
   1401 N           4.2232   15.2386    2.6643 N.3   351  UNL351     -0.3437
   1402 H           3.7314   14.5630    2.0812 H     351  UNL351      0.1146
   1403 H           4.9148   14.7055    3.1896 H     351  UNL351      0.1146
   1404 H           4.7516   15.8300    2.0243 H     351  UNL351      0.1146
   1405 N           4.1904   15.0335    5.3273 N.3   352  UNL352     -0.3437
   1406 H           4.5722   14.1761    4.9303 H     352  UNL352      0.1146
   1407 H           4.9820   15.5339    5.7290 H     352  UNL352      0.1146
   1408 H           3.8763   15.5937    4.5361 H     352  UNL352      0.1146
   1409 N           4.1928   15.0681    7.5666 N.3   353  UNL353     -0.3437
   1410 H           3.8254   15.2310    8.5030 H     353  UNL353      0.1146
   1411 H           4.8548   15.8223    7.3894 H     353  UNL353      0.1146
   1412 H           4.7480   14.2157    7.6270 H     353  UNL353      0.1146
   1413 N           4.2278   15.2343   10.5950 N.3   354  UNL354     -0.3437
   1414 H           3.7134   14.6468    9.9403 H     354  UNL354      0.1146
   1415 H           4.8666   14.6123   11.0885 H     354  UNL354      0.1146
   1416 H           4.8132   15.8437   10.0255 H     354  UNL354      0.1146
   1417 N           4.2067   14.9527   12.8781 N.3   355  UNL355     -0.3437
   1418 H           3.7757   15.5353   13.5945 H     355  UNL355      0.1146
   1419 H           4.8419   15.5623   12.3650 H     355  UNL355      0.1146
   1420 H           4.7967   14.2869   13.3751 H     355  UNL355      0.1146
   1421 N           4.1837   15.2469   15.8028 N.3   356  UNL356     -0.3437
   1422 H           3.8708   14.5672   15.1111 H     356  UNL356      0.1146
   1423 H           4.6705   14.7128   16.5213 H     356  UNL356      0.1146
   1424 H           4.8960   15.8103   15.3408 H     356  UNL356      0.1146
   1425 N           4.2515   15.2342   18.5379 N.3   357  UNL357     -0.3437
   1426 H           3.6685   14.6054   17.9874 H     357  UNL357      0.1146
   1427 H           4.9828   14.6538   18.9462 H     357  UNL357      0.1146
   1428 H           4.7181   15.8436   17.8677 H     357  UNL357      0.1146
   1429 N           4.2203   14.9479   20.7897 N.3   358  UNL358     -0.3437
   1430 H           3.7442   15.3447   21.5985 H     358  UNL358      0.1146
   1431 H           4.7212   15.7198   20.3518 H     358  UNL358      0.1146
   1432 H           4.9353   14.3248   21.1625 H     358  UNL358      0.1146
   1433 N           4.2738   15.2783   23.7967 N.3   359  UNL359     -0.3437
   1434 H           3.6076   14.6957   23.2916 H     359  UNL359      0.1146
   1435 H           4.8903   14.6353   24.2917 H     359  UNL359      0.1146
   1436 H           4.8492   15.7278   23.0859 H     359  UNL359      0.1146
   1437 N           4.1973   15.2559   26.3785 N.3   360  UNL360     -0.3437
   1438 H           3.8097   14.5416   25.7637 H     360  UNL360      0.1146
   1439 H           4.7515   14.7577   27.0735 H     360  UNL360      0.1146
   1440 H           4.8624   15.7820   25.8135 H     360  UNL360      0.1146
   1441 N           2.7872   15.2554   28.8665 N.3   361  UNL361     -0.3437
   1442 H           2.4314   14.9075   27.9773 H     361  UNL361      0.1146
   1443 H           2.0093   15.7426   29.3090 H     361  UNL361      0.1146
   1444 H           2.9650   14.4317   29.4395 H     361  UNL361      0.1146
   1445 N           4.2236   15.3144   31.5766 N.3   362  UNL362     -0.3437
   1446 H           3.7265   14.4279   31.5038 H     362  UNL362      0.1146
   1447 H           4.8842   15.2038   32.3446 H     362  UNL362      0.1146
   1448 H           4.7867   15.3910   30.7307 H     362  UNL362      0.1146
   1449 N           4.3202   13.3030   34.3595 N.3   363  UNL363     -0.3437
   1450 H           3.5529   12.9296   33.8026 H     363  UNL363      0.1146
   1451 H           4.7138   12.5093   34.8631 H     363  UNL363      0.1146
   1452 H           5.0342   13.5952   33.6938 H     363  UNL363      0.1146
   1453 N           4.1842   18.1003    2.4851 N.3   364  UNL364     -0.3437
   1454 H           4.5538   17.9003    1.5567 H     364  UNL364      0.1146
   1455 H           3.9050   17.2015    2.8758 H     364  UNL364      0.1146
   1456 H           4.9780   18.4141    3.0417 H     364  UNL364      0.1146
   1457 N           4.1772   17.8268    4.9593 N.3   365  UNL365     -0.3437
   1458 H           3.8852   18.1636    5.8756 H     365  UNL365      0.1146
   1459 H           4.7410   18.5719    4.5527 H     365  UNL365      0.1146
   1460 H           4.8177   17.0540    5.1351 H     365  UNL365      0.1146
   1461 N           4.2276   18.1056    7.8948 N.3   366  UNL366     -0.3437
   1462 H           3.7139   17.3742    7.4054 H     366  UNL366      0.1146
   1463 H           4.8151   17.6280    8.5769 H     366  UNL366      0.1146
   1464 H           4.8644   18.5085    7.2089 H     366  UNL366      0.1146
   1465 N           4.2307   18.0866   10.5660 N.3   367  UNL367     -0.3437
   1466 H           3.7053   17.4386    9.9809 H     367  UNL367      0.1146
   1467 H           4.8214   17.5098   11.1634 H     367  UNL367      0.1146
   1468 H           4.8635   18.5813    9.9390 H     367  UNL367      0.1146
   1469 N           4.2169   18.0916   13.1824 N.3   368  UNL368     -0.3437
   1470 H           3.7493   17.4181   12.5773 H     368  UNL368      0.1146
   1471 H           4.7500   17.5422   13.8550 H     368  UNL368      0.1146
   1472 H           4.9048   18.5643   12.5978 H     368  UNL368      0.1146
   1473 N           4.2258   18.0814   15.8481 N.3   369  UNL369     -0.3437
   1474 H           4.8942   17.5879   16.4381 H     369  UNL369      0.1146
   1475 H           4.7797   18.5854   15.1570 H     369  UNL369      0.1146
   1476 H           3.7212   17.3616   15.3327 H     369  UNL369      0.1146
   1477 N           4.2455   18.0905   18.4994 N.3   370  UNL370     -0.3437
   1478 H           3.6688   17.4920   17.9098 H     370  UNL370      0.1146
   1479 H           4.8200   17.4627   19.0600 H     370  UNL370      0.1146
   1480 H           4.8867   18.5710   17.8700 H     370  UNL370      0.1146
   1481 N           4.2451   18.0903   21.1401 N.3   371  UNL371     -0.3437
   1482 H           3.6693   17.4858   20.5559 H     371  UNL371      0.1146
   1483 H           4.8258   17.4686   21.7011 H     371  UNL371      0.1146
   1484 H           4.8808   18.5715   20.5054 H     371  UNL371      0.1146
   1485 N           4.2336   18.0962   23.7613 N.3   372  UNL372     -0.3437
   1486 H           3.6983   17.4335   23.2022 H     372  UNL372      0.1146
   1487 H           4.8110   17.5349   24.3858 H     372  UNL372      0.1146
   1488 H           4.8781   18.5516   23.1165 H     372  UNL372      0.1146
   1489 N           4.2383   18.0968   26.4068 N.3   373  UNL373     -0.3437
   1490 H           3.6867   17.4566   25.8375 H     373  UNL373      0.1146
   1491 H           4.8069   17.5114   27.0171 H     373  UNL373      0.1146
   1492 H           4.8891   18.5514   25.7678 H     373  UNL373      0.1146
   1493 N           4.2215   18.0933   29.0315 N.3   374  UNL374     -0.3437
   1494 H           3.7307   17.3801   28.4941 H     374  UNL374      0.1146
   1495 H           4.8152   17.5903   29.6895 H     374  UNL374      0.1146
   1496 H           4.8536   18.5525   28.3773 H     374  UNL374      0.1146
   1497 N           4.2036   17.7660   31.7052 N.3   375  UNL375     -0.3437
   1498 H           3.7854   18.3673   30.9967 H     375  UNL375      0.1146
   1499 H           4.8098   17.1193   31.2024 H     375  UNL375      0.1146
   1500 H           4.8222   18.3637   32.2514 H     375  UNL375      0.1146
   1501 N           4.6380   15.7221   35.1710 N.3   376  UNL376     -0.3437
   1502 H           4.1093   15.7279   34.2999 H     376  UNL376      0.1146
   1503 H           4.9015   16.6907   35.3461 H     376  UNL376      0.1146
   1504 H           3.9722   15.4756   35.9020 H     376  UNL376      0.1146
   1505 N           2.2346   20.5606   -0.3288 N.3   377  UNL377     -0.3437
   1506 H           1.6963   21.1871    0.2680 H     377  UNL377      0.1146
   1507 H           2.8861   21.1526   -0.8422 H     377  UNL377      0.1146
   1508 H           2.8040   19.9950    0.2990 H     377  UNL377      0.1146
   1509 N           4.2631   20.5867    2.2699 N.3   378  UNL378     -0.3437
   1510 H           3.6296   20.9701    2.9699 H     378  UNL378      0.1146
   1511 H           4.8300   21.3690    1.9457 H     378  UNL378      0.1146
   1512 H           4.8983   19.9695    2.7739 H     378  UNL378      0.1146
   1513 N           4.1631   20.5884    5.0288 N.3   379  UNL379     -0.3437
   1514 H           4.7380   20.9802    4.2843 H     379  UNL379      0.1146
   1515 H           4.7723   19.9635    5.5549 H     379  UNL379      0.1146
   1516 H           3.9476   21.3632    5.6547 H     379  UNL379      0.1146
   1517 N           4.2000   20.5681    7.6265 N.3   380  UNL380     -0.3437
   1518 H           3.7978   21.2780    8.2369 H     380  UNL380      0.1146
   1519 H           4.8347   21.0625    7.0010 H     380  UNL380      0.1146
   1520 H           4.7885   19.9867    8.2216 H     380  UNL380      0.1146
   1521 N           4.2180   20.5464   10.2680 N.3   381  UNL381     -0.3437
   1522 H           3.7408   21.2305   10.8535 H     381  UNL381      0.1146
   1523 H           4.8161   21.0822    9.6406 H     381  UNL381      0.1146
   1524 H           4.8461   20.0362   10.8872 H     381  UNL381      0.1146
   1525 N           4.2277   20.5471   12.8962 N.3   382  UNL382     -0.3437
   1526 H           3.7153   21.2512   13.4255 H     382  UNL382      0.1146
   1527 H           4.8887   21.0594   12.3140 H     382  UNL382      0.1146
   1528 H           4.7893   20.0376   13.5769 H     382  UNL382      0.1146
   1529 N           4.2225   20.5583   15.5310 N.3   383  UNL383     -0.3437
   1530 H           3.7282   21.2218   16.1258 H     383  UNL383      0.1146
   1531 H           4.8636   21.1122   14.9647 H     383  UNL383      0.1146
   1532 H           4.8067   20.0031   16.1546 H     383  UNL383      0.1146
   1533 N           4.2297   20.5734   18.1507 N.3   384  UNL384     -0.3437
   1534 H           3.7106   21.1885   18.7756 H     384  UNL384      0.1146
   1535 H           4.8967   21.1682   17.6612 H     384  UNL384      0.1146
   1536 H           4.7840   19.9653   18.7518 H     384  UNL384      0.1146
   1537 N           4.2255   20.5572   20.8104 N.3   385  UNL385     -0.3437
   1538 H           3.7192   21.1971   21.4207 H     385  UNL385      0.1146
   1539 H           4.8499   21.1370   20.2515 H     385  UNL385      0.1146
   1540 H           4.8264   20.0041   21.4199 H     385  UNL385      0.1146
   1541 N           4.2162   20.5553   23.4640 N.3   386  UNL386     -0.3437
   1542 H           3.7459   21.2374   24.0571 H     386  UNL386      0.1146
   1543 H           4.8413   21.0898   22.8623 H     386  UNL386      0.1146
   1544 H           4.8176   20.0128   24.0823 H     386  UNL386      0.1146
   1545 N           4.2186   20.5493   26.1087 N.3   387  UNL387     -0.3437
   1546 H           3.7388   21.2293   26.6967 H     387  UNL387      0.1146
   1547 H           4.8273   21.0888   25.4947 H     387  UNL387      0.1146
   1548 H           4.8364   20.0279   26.7290 H     387  UNL387      0.1146
   1549 N           4.2146   20.5489   28.7552 N.3   388  UNL388     -0.3437
   1550 H           3.7508   21.2579   29.3215 H     388  UNL388      0.1146
   1551 H           4.8344   21.0548   28.1241 H     388  UNL388      0.1146
   1552 H           4.8213   20.0338   29.3916 H     388  UNL388      0.1146
   1553 N           4.2011   20.5691   31.3914 N.3   389  UNL389     -0.3437
   1554 H           3.7942   21.2185   32.0630 H     389  UNL389      0.1146
   1555 H           4.7890   21.1314   30.7777 H     389  UNL389      0.1146
   1556 H           4.8368   19.9764   31.9235 H     389  UNL389      0.1146
   1557 N           4.3419   18.4572   34.2905 N.3   390  UNL390     -0.3437
   1558 H           3.7080   18.7338   33.5421 H     390  UNL390      0.1146
   1559 H           5.2804   18.5076   33.8967 H     390  UNL390      0.1146
   1560 H           4.2907   19.1967   34.9897 H     390  UNL390      0.1146
   1561 N           4.2166   23.3870   -0.3160 N.3   391  UNL391     -0.3437
   1562 H           3.7474   24.0663    0.2813 H     391  UNL391      0.1146
   1563 H           4.8828   23.9176   -0.8754 H     391  UNL391      0.1146
   1564 H           4.7742   22.8036    0.3062 H     391  UNL391      0.1146
   1565 N           4.2279   23.3861    2.3135 N.3   392  UNL392     -0.3437
   1566 H           3.7126   23.9814    2.9603 H     392  UNL392      0.1146
   1567 H           4.8494   24.0058    1.7956 H     392  UNL392      0.1146
   1568 H           4.8312   22.8012    2.8900 H     392  UNL392      0.1146
   1569 N           4.2039   23.3905    4.9777 N.3   393  UNL393     -0.3437
   1570 H           3.7847   24.0705    5.6104 H     393  UNL393      0.1146
   1571 H           4.8372   23.9178    4.3783 H     393  UNL393      0.1146
   1572 H           4.7952   22.7956    5.5564 H     393  UNL393      0.1146
   1573 N           4.2145   23.3994    7.5978 N.3   394  UNL394     -0.3437
   1574 H           3.7512   23.9936    8.2838 H     394  UNL394      0.1146
   1575 H           4.8403   24.0100    7.0744 H     394  UNL394      0.1146
   1576 H           4.8150   22.7714    8.1300 H     394  UNL394      0.1146
   1577 N           4.2087   23.3847   10.2590 N.3   395  UNL395     -0.3437
   1578 H           3.7691   24.0661   10.8761 H     395  UNL395      0.1146
   1579 H           4.8404   23.9146    9.6601 H     395  UNL395      0.1146
   1580 H           4.8028   22.8091   10.8541 H     395  UNL395      0.1146
   1581 N           4.1982   23.4038   12.8951 N.3   396  UNL396     -0.3437
   1582 H           3.8038   24.0476   13.5795 H     396  UNL396      0.1146
   1583 H           4.8273   23.9592   12.3170 H     396  UNL396      0.1146
   1584 H           4.7917   22.7639   13.4210 H     396  UNL396      0.1146
   1585 N           4.2172   23.4012   15.5159 N.3   397  UNL397     -0.3437
   1586 H           3.7437   23.9969   16.1936 H     397  UNL397      0.1146
   1587 H           4.8582   24.0086   15.0074 H     397  UNL397      0.1146
   1588 H           4.8020   22.7677   16.0591 H     397  UNL397      0.1146
   1589 N           4.2166   23.3998   18.1585 N.3   398  UNL398     -0.3437
   1590 H           3.7474   24.0323   18.8052 H     398  UNL398      0.1146
   1591 H           4.8828   23.9710   17.6405 H     398  UNL398      0.1146
   1592 H           4.7742   22.7713   18.7351 H     398  UNL398      0.1146
   1593 N           4.2103   23.3993   20.8067 N.3   399  UNL399     -0.3437
   1594 H           3.7649   24.0321   21.4697 H     399  UNL399      0.1146
   1595 H           4.8558   23.9707   20.2633 H     399  UNL399      0.1146
   1596 H           4.7901   22.7724   21.3628 H     399  UNL399      0.1146
   1597 N           4.2048   23.4070   23.4476 N.3   400  UNL400     -0.3437
   1598 H           3.7844   24.0551   24.1121 H     400  UNL400      0.1146
   1599 H           4.8705   23.9545   22.9041 H     400  UNL400      0.1146
   1600 H           4.7613   22.7579   24.0020 H     400  UNL400      0.1146
   1601 N           4.1784   23.4326   26.1037 N.3   401  UNL401     -0.3437
   1602 H           3.8867   24.1233   26.7938 H     401  UNL401      0.1146
   1603 H           4.8644   23.8992   25.5120 H     401  UNL401      0.1146
   1604 H           4.6915   22.7193   26.6197 H     401  UNL401      0.1146
   1605 N           4.2167   23.4001   28.7214 N.3   402  UNL402     -0.3437
   1606 H           3.7469   24.0300   29.3700 H     402  UNL402      0.1146
   1607 H           4.8821   23.9737   28.2050 H     402  UNL402      0.1146
   1608 H           4.7753   22.7707   29.2960 H     402  UNL402      0.1146
   1609 N           4.1833   23.4033   31.4032 N.3   403  UNL403     -0.3437
   1610 H           3.8587   24.1182   32.0526 H     403  UNL403      0.1146
   1611 H           4.8068   23.8778   30.7517 H     403  UNL403      0.1146
   1612 H           4.7721   22.7751   31.9483 H     403  UNL403      0.1146
   1613 N           4.1208   21.6208   34.2023 N.3   404  UNL404     -0.3437
   1614 H           4.2503   20.7266   33.7311 H     404  UNL404      0.1146
   1615 H           4.5775   21.5294   35.1087 H     404  UNL404      0.1146
   1616 H           4.6724   22.2976   33.6769 H     404  UNL404      0.1146
   1617 N           4.1916   26.4766    0.0190 N.3   405  UNL405     -0.3437
   1618 H           3.8274   25.9303   -0.7603 H     405  UNL405      0.1146
   1619 H           4.8146   25.8541    0.5315 H     405  UNL405      0.1146
   1620 H           4.7875   27.1925   -0.3942 H     405  UNL405      0.1146
   1621 N           4.2276   26.5063    2.6780 N.3   406  UNL406     -0.3437
   1622 H           3.7151   25.9260    2.0154 H     406  UNL406      0.1146
   1623 H           4.8817   25.8833    3.1496 H     406  UNL406      0.1146
   1624 H           4.7967   27.1380    2.1164 H     406  UNL406      0.1146
   1625 N           4.2133   26.4879    5.3179 N.3   407  UNL407     -0.3437
   1626 H           3.7634   25.8657    4.6479 H     407  UNL407      0.1146
   1627 H           4.9190   25.9265    5.7924 H     407  UNL407      0.1146
   1628 H           4.7253   27.1735    4.7645 H     407  UNL407      0.1146
   1629 N           4.2120   26.4818    7.9612 N.3   408  UNL408     -0.3437
   1630 H           3.7587   25.9936    7.1901 H     408  UNL408      0.1146
   1631 H           4.8290   25.8005    8.4011 H     408  UNL408      0.1146
   1632 H           4.8214   27.1776    7.5336 H     408  UNL408      0.1146
   1633 N           4.1929   26.2871   10.2214 N.3   409  UNL409     -0.3437
   1634 H           3.8228   26.6067   11.1154 H     409  UNL409      0.1146
   1635 H           4.7815   27.0431    9.8746 H     409  UNL409      0.1146
   1636 H           4.8238   25.5167   10.4379 H     409  UNL409      0.1146
   1637 N           4.2054   26.5175   13.2071 N.3   410  UNL410     -0.3437
   1638 H           3.7838   25.7910   12.6302 H     410  UNL410      0.1146
   1639 H           4.8831   26.0446   13.8033 H     410  UNL410      0.1146
   1640 H           4.7487   27.1005   12.5720 H     410  UNL410      0.1146
   1641 N           4.2086   26.4542   15.8952 N.3   411  UNL411     -0.3437
   1642 H           3.7706   26.0196   15.0843 H     411  UNL411      0.1146
   1643 H           4.8613   25.7646   16.2652 H     411  UNL411      0.1146
   1644 H           4.7805   27.2151   15.5313 H     411  UNL411      0.1146
   1645 N           4.2363   26.2538   18.1184 N.3   412  UNL412     -0.3437
   1646 H           3.6937   26.7199   18.8441 H     412  UNL412      0.1146
   1647 H           4.9080   26.9431   17.7835 H     412  UNL412      0.1146
   1648 H           4.7829   25.5368   18.5932 H     412  UNL412      0.1146
   1649 N           4.2308   26.2132   20.7902 N.3   413  UNL413     -0.3437
   1650 H           3.7051   26.7867   21.4482 H     413  UNL413      0.1146
   1651 H           4.8646   26.8487   20.3077 H     413  UNL413      0.1146
   1652 H           4.8205   25.6049   21.3565 H     413  UNL413      0.1146
   1653 N           4.2041   26.2191   23.4550 N.3   414  UNL414     -0.3437
   1654 H           3.7840   26.8519   24.1343 H     414  UNL414      0.1146
   1655 H           4.8287   26.7904   22.8877 H     414  UNL414      0.1146
   1656 H           4.8043   25.5922   23.9889 H     414  UNL414      0.1146
   1657 N           4.2087   26.2158   26.0931 N.3   415  UNL415     -0.3437
   1658 H           3.7691   26.8471   26.7614 H     415  UNL415      0.1146
   1659 H           4.8363   26.7916   25.5337 H     415  UNL415      0.1146
   1660 H           4.8070   25.5991   26.6410 H     415  UNL415      0.1146
   1661 N           4.2036   26.2150   28.7409 N.3   416  UNL416     -0.3437
   1662 H           3.7856   26.8766   29.3936 H     416  UNL416      0.1146
   1663 H           4.8369   26.7591   28.1566 H     416  UNL416      0.1146
   1664 H           4.7948   25.6029   29.3014 H     416  UNL416      0.1146
   1665 N           4.1529   26.3334   31.3879 N.3   417  UNL417     -0.3437
   1666 H           4.0044   26.4012   32.3937 H     417  UNL417      0.1146
   1667 H           4.6735   27.1687   31.1239 H     417  UNL417      0.1146
   1668 H           4.7902   25.5502   31.2502 H     417  UNL417      0.1146
   1669 N           4.2824   24.5900   34.3244 N.3   418  UNL418     -0.3437
   1670 H           4.7918   23.9586   34.9410 H     418  UNL418      0.1146
   1671 H           4.9504   24.8902   33.6158 H     418  UNL418      0.1146
   1672 H           3.5964   24.0148   33.8378 H     418  UNL418      0.1146
   1673 N           4.2034   30.0627   -0.3302 N.3   419  UNL419     -0.3437
   1674 H           3.7960   30.7082    0.3450 H     419  UNL419      0.1146
   1675 H           4.9115   30.5940   -0.8349 H     419  UNL419      0.1146
   1676 H           4.7102   29.3677    0.2162 H     419  UNL419      0.1146
   1677 N           4.2571   30.0515    2.2706 N.3   420  UNL420     -0.3437
   1678 H           3.6426   30.4263    2.9919 H     420  UNL420      0.1146
   1679 H           4.8232   30.8353    1.9487 H     420  UNL420      0.1146
   1680 H           4.8981   29.4196    2.7482 H     420  UNL420      0.1146
   1681 N           4.1609   30.1315    4.9726 N.3   421  UNL421     -0.3437
   1682 H           3.9580   30.4458    5.9205 H     421  UNL421      0.1146
   1683 H           4.7531   30.8502    4.5591 H     421  UNL421      0.1146
   1684 H           4.7490   29.3051    5.0706 H     421  UNL421      0.1146
   1685 N           4.2139   28.9578    7.7735 N.3   422  UNL422     -0.3437
   1686 H           3.7550   29.8650    7.8426 H     422  UNL422      0.1146
   1687 H           4.7751   28.9909    6.9236 H     422  UNL422      0.1146
   1688 H           4.8769   28.9189    8.5464 H     422  UNL422      0.1146
   1689 N           4.2277   30.1014   10.1905 N.3   423  UNL423     -0.3437
   1690 H           3.7144   30.4602   10.9944 H     423  UNL423      0.1146
   1691 H           4.8801   30.8371    9.9227 H     423  UNL423      0.1146
   1692 H           4.7988   29.3340   10.5416 H     423  UNL423      0.1146
   1693 N           4.2277   30.1014   12.8314 N.3   424  UNL424     -0.3437
   1694 H           3.7144   30.4602   13.6352 H     424  UNL424      0.1146
   1695 H           4.8801   30.8371   12.5636 H     424  UNL424      0.1146
   1696 H           4.7988   29.3340   13.1825 H     424  UNL424      0.1146
   1697 N           4.2149   30.0628   15.5025 N.3   425  UNL425     -0.3437
   1698 H           3.7572   30.4284   16.3363 H     425  UNL425      0.1146
   1699 H           4.7356   30.8425   15.1033 H     425  UNL425      0.1146
   1700 H           4.9133   29.3989   15.8338 H     425  UNL425      0.1146
   1701 N           4.4643   30.4282   18.6059 N.3   426  UNL426     -0.3437
   1702 H           3.5441   30.7097   18.2708 H     426  UNL426      0.1146
   1703 H           4.4826   29.4106   18.5551 H     426  UNL426      0.1146
   1704 H           5.1300   30.7562   17.9075 H     426  UNL426      0.1146
   1705 N           2.1215   30.1172   21.0254 N.3   427  UNL427     -0.3437
   1706 H           2.3096   30.3354   20.0480 H     427  UNL427      0.1146
   1707 H           2.7521   29.3549   21.2694 H     427  UNL427      0.1146
   1708 H           2.4378   30.9252   21.5596 H     427  UNL427      0.1146
   1709 N           4.2133   29.1008   23.4073 N.3   428  UNL428     -0.3437
   1710 H           3.9861   28.7173   24.3236 H     428  UNL428      0.1146
   1711 H           4.2546   30.1118   23.5282 H     428  UNL428      0.1146
   1712 H           5.1670   28.8029   23.2067 H     428  UNL428      0.1146
   1713 N           4.2277   30.1014   26.0355 N.3   429  UNL429     -0.3437
   1714 H           3.7144   30.4602   26.8394 H     429  UNL429      0.1146
   1715 H           4.8801   30.8371   25.7677 H     429  UNL429      0.1146
   1716 H           4.7988   29.3340   26.3866 H     429  UNL429      0.1146
   1717 N           4.2274   30.1018   28.6765 N.3   430  UNL430     -0.3437
   1718 H           3.7157   30.4658   29.4790 H     430  UNL430      0.1146
   1719 H           4.8840   30.8330   28.4069 H     430  UNL430      0.1146
   1720 H           4.7938   29.3321   29.0300 H     430  UNL430      0.1146
   1721 N           4.1664   30.1712   31.3652 N.3   431  UNL431     -0.3437
   1722 H           3.9436   30.4363   32.3235 H     431  UNL431      0.1146
   1723 H           4.8570   30.8465   31.0403 H     431  UNL431      0.1146
   1724 H           4.6541   29.2786   31.4268 H     431  UNL431      0.1146
   1725 N           4.1107   29.1699   34.1595 N.3   432  UNL432     -0.3437
   1726 H           4.4644   28.7700   35.0274 H     432  UNL432      0.1146
   1727 H           4.4655   30.1245   34.1250 H     432  UNL432      0.1146
   1728 H           4.5805   28.6683   33.4072 H     432  UNL432      0.1146
   1729 N           6.9630    1.0953   -0.4242 N.3   433  UNL433     -0.3437
   1730 H           6.3409    1.6470    0.1649 H     433  UNL433      0.1146
   1731 H           7.8532    1.0526    0.0699 H     433  UNL433      0.1146
   1732 H           6.5908    0.1467   -0.4146 H     433  UNL433      0.1146
   1733 N           7.1468    1.1228    2.3335 N.3   434  UNL434     -0.3437
   1734 H           6.5596    1.7694    2.8584 H     434  UNL434      0.1146
   1735 H           7.5283    0.4710    3.0176 H     434  UNL434      0.1146
   1736 H           6.5131    0.5785    1.7499 H     434  UNL434      0.1146
   1737 N           6.7285    1.0902    5.3121 N.3   435  UNL435     -0.3437
   1738 H           7.2527    1.8292    4.8459 H     435  UNL435      0.1146
   1739 H           6.3473    0.5050    4.5700 H     435  UNL435      0.1146
   1740 H           7.4193    0.5173    5.7947 H     435  UNL435      0.1146
   1741 N           6.7493    1.1128    7.9611 N.3   436  UNL436     -0.3437
   1742 H           6.2734    0.6143    7.2105 H     436  UNL436      0.1146
   1743 H           7.3594    0.4303    8.4088 H     436  UNL436      0.1146
   1744 H           7.3657    1.7843    7.5057 H     436  UNL436      0.1146
   1745 N           6.7599    0.8471   10.2202 N.3   437  UNL437     -0.3437
   1746 H           6.2456    1.4185   10.8890 H     437  UNL437      0.1146
   1747 H           7.4218    1.4744    9.7653 H     437  UNL437      0.1146
   1748 H           7.3205    0.2017   10.7748 H     437  UNL437      0.1146
   1749 N           6.6826    0.9512   13.1998 N.3   438  UNL438     -0.3437
   1750 H           7.0177    0.0832   12.7843 H     438  UNL438      0.1146
   1751 H           7.4384    1.2880   13.7946 H     438  UNL438      0.1146
   1752 H           6.6092    1.6192   12.4339 H     438  UNL438      0.1146
   1753 N           6.6898    0.8694   15.8072 N.3   439  UNL439     -0.3437
   1754 H           7.3726    0.1607   15.5429 H     439  UNL439      0.1146
   1755 H           7.1677    1.4909   16.4582 H     439  UNL439      0.1146
   1756 H           6.5177    1.4206   14.9676 H     439  UNL439      0.1146
   1757 N           7.0716    1.1277   18.1134 N.3   440  UNL440     -0.3437
   1758 H           7.7286    0.6929   18.7597 H     440  UNL440      0.1146
   1759 H           6.4613    0.3795   17.7876 H     440  UNL440      0.1146
   1760 H           6.4864    1.7415   18.6784 H     440  UNL440      0.1146
   1761 N           7.1700    1.1307   20.8663 N.3   441  UNL441     -0.3437
   1762 H           7.4355    0.3918   21.5159 H     441  UNL441      0.1146
   1763 H           6.6109    0.6810   20.1427 H     441  UNL441      0.1146
   1764 H           6.5314    1.7382   21.3776 H     441  UNL441      0.1146
   1765 N           7.1444    0.8933   23.8058 N.3   442  UNL442     -0.3437
   1766 H           6.7089    0.1267   23.2948 H     442  UNL442      0.1146
   1767 H           7.5102    1.5299   23.0991 H     442  UNL442      0.1146
   1768 H           6.3842    1.3918   24.2661 H     442  UNL442      0.1146
   1769 N           6.7004    1.1116   26.3819 N.3   443  UNL443     -0.3437
   1770 H           7.3248    0.6845   27.0646 H     443  UNL443      0.1146
   1771 H           7.2695    1.7738   25.8565 H     443  UNL443      0.1146
   1772 H           6.4531    0.3718   25.7262 H     443  UNL443      0.1146
   1773 N           6.7587    1.1210   29.0910 N.3   444  UNL444     -0.3437
   1774 H           6.2473    0.5869   28.3899 H     444  UNL444      0.1146
   1775 H           7.3942    0.4617   29.5380 H     444  UNL444      0.1146
   1776 H           7.3477    1.7720   28.5736 H     444  UNL444      0.1146
   1777 N           4.6512    1.0602   31.5510 N.3   445  UNL445     -0.3437
   1778 H           4.7914    0.0706   31.3526 H     445  UNL445      0.1146
   1779 H           5.1440    1.2443   32.4237 H     445  UNL445      0.1146
   1780 H           5.1611    1.5665   30.8284 H     445  UNL445      0.1146
   1781 N           7.1017   -1.2271   34.0570 N.3   446  UNL446     -0.3437
   1782 H           6.1954   -1.1199   33.6038 H     446  UNL446      0.1146
   1783 H           7.5462   -0.3111   34.0165 H     446  UNL446      0.1146
   1784 H           6.9045   -1.4003   35.0417 H     446  UNL446      0.1146
   1785 N           6.7366    3.9582    0.0034 N.3   447  UNL447     -0.3437
   1786 H           6.3134    3.2740   -0.6220 H     447  UNL447      0.1146
   1787 H           7.3779    3.4358    0.5986 H     447  UNL447      0.1146
   1788 H           7.3198    4.5527   -0.5839 H     447  UNL447      0.1146
   1789 N           6.7511    3.9628    2.6572 N.3   448  UNL448     -0.3437
   1790 H           6.2681    3.3413    2.0100 H     448  UNL448      0.1146
   1791 H           7.3702    3.3692    3.2075 H     448  UNL448      0.1146
   1792 H           7.3584    4.5475    2.0847 H     448  UNL448      0.1146
   1793 N           6.7558    3.9416    5.3203 N.3   449  UNL449     -0.3437
   1794 H           6.2577    3.3557    4.6517 H     449  UNL449      0.1146
   1795 H           7.4253    3.3303    5.7854 H     449  UNL449      0.1146
   1796 H           7.3089    4.5931    4.7653 H     449  UNL449      0.1146
   1797 N           6.7334    3.9687    7.9101 N.3   450  UNL450     -0.3437
   1798 H           6.3233    3.2627    7.3004 H     450  UNL450      0.1146
   1799 H           7.3402    3.4646    8.5552 H     450  UNL450      0.1146
   1800 H           7.3509    4.5247    7.3203 H     450  UNL450      0.1146
   1801 N           6.7787    3.9758   10.5946 N.3   451  UNL451     -0.3437
   1802 H           6.1964    3.3806   10.0073 H     451  UNL451      0.1146
   1803 H           7.4107    3.3489   11.0906 H     451  UNL451      0.1146
   1804 H           7.3620    4.5155    9.9567 H     451  UNL451      0.1146
   1805 N           6.7607    3.8353   12.8178 N.3   452  UNL452     -0.3437
   1806 H           6.2425    3.6695   13.6793 H     452  UNL452      0.1146
   1807 H           7.3339    4.6602   12.9890 H     452  UNL452      0.1146
   1808 H           7.4107    3.0558   12.7265 H     452  UNL452      0.1146
   1809 N           6.6816    3.8348   15.5481 N.3   453  UNL453     -0.3437
   1810 H           6.7698    2.9299   16.0081 H     453  UNL453      0.1146
   1811 H           6.8013    4.5345   16.2792 H     453  UNL453      0.1146
   1812 H           7.4951    3.9216   14.9406 H     453  UNL453      0.1146
   1813 N           6.7695    3.5938   18.4559 N.3   454  UNL454     -0.3437
   1814 H           6.2191    4.3147   17.9915 H     454  UNL454      0.1146
   1815 H           7.4114    3.2330   17.7515 H     454  UNL454      0.1146
   1816 H           7.3478    4.0793   19.1403 H     454  UNL454      0.1146
   1817 N           6.8049    3.6454   21.1864 N.3   455  UNL455     -0.3437
   1818 H           6.1679    3.9126   20.4372 H     455  UNL455      0.1146
   1819 H           7.5731    3.1483   20.7380 H     455  UNL455      0.1146
   1820 H           7.2018    4.5145   21.5409 H     455  UNL455      0.1146
   1821 N           6.7360    3.9156   23.4298 N.3   456  UNL456     -0.3437
   1822 H           6.3154    3.4822   24.2506 H     456  UNL456      0.1146
   1823 H           7.3767    4.6246   23.7838 H     456  UNL456      0.1146
   1824 H           7.3196    3.1984   23.0016 H     456  UNL456      0.1146
   1825 N           6.7537    4.0005   26.3823 N.3   457  UNL457     -0.3437
   1826 H           6.2625    3.2144   25.9592 H     457  UNL457      0.1146
   1827 H           7.4117    3.5958   27.0469 H     457  UNL457      0.1146
   1828 H           7.3199    4.4100   25.6407 H     457  UNL457      0.1146
   1829 N           6.7637    3.9243   29.1059 N.3   458  UNL458     -0.3437
   1830 H           6.2352    3.4329   28.3866 H     458  UNL458      0.1146
   1831 H           7.4225    3.2450   29.4839 H     458  UNL458      0.1146
   1832 H           7.3263    4.6186   28.6161 H     458  UNL458      0.1146
   1833 N           6.6957    3.8763   31.3836 N.3   459  UNL459     -0.3437
   1834 H           6.4905    3.6783   32.3620 H     459  UNL459      0.1146
   1835 H           7.3945    4.6179   31.3877 H     459  UNL459      0.1146
   1836 H           7.1671    3.0482   31.0224 H     459  UNL459      0.1146
   1837 N           7.1818    1.7243   35.3243 N.3   460  UNL460     -0.3437
   1838 H           7.3570    1.9444   34.3449 H     460  UNL460      0.1146
   1839 H           6.7434    2.5527   35.7243 H     460  UNL460      0.1146
   1840 H           6.4656    0.9994   35.3255 H     460  UNL460      0.1146
   1841 N           6.7222    6.4678   -0.2797 N.3   461  UNL461     -0.3437
   1842 H           6.3681    7.2783    0.2263 H     461  UNL461      0.1146
   1843 H           7.4015    6.8288   -0.9481 H     461  UNL461      0.1146
   1844 H           7.2560    5.9250    0.3976 H     461  UNL461      0.1146
   1845 N           7.1579    6.6350    2.2937 N.3   462  UNL462     -0.3437
   1846 H           7.4557    6.2908    3.2054 H     462  UNL462      0.1146
   1847 H           6.3960    6.0258    1.9987 H     462  UNL462      0.1146
   1848 H           6.7382    7.5482    2.4616 H     462  UNL462      0.1146
   1849 N           6.7336    6.7436    5.3094 N.3   463  UNL463     -0.3437
   1850 H           6.3266    6.1474    4.5902 H     463  UNL463      0.1146
   1851 H           7.4061    6.1628    5.8082 H     463  UNL463      0.1146
   1852 H           7.2816    7.4461    4.8149 H     463  UNL463      0.1146
   1853 N           6.7555    6.7193    7.9849 N.3   464  UNL464     -0.3437
   1854 H           6.2579    6.2929    7.2045 H     464  UNL464      0.1146
   1855 H           7.4181    6.0178    8.3125 H     464  UNL464      0.1146
   1856 H           7.3163    7.4698    7.5841 H     464  UNL464      0.1146
   1857 N           6.7614    6.4544   10.2466 N.3   465  UNL465     -0.3437
   1858 H           6.2442    7.1538   10.7774 H     465  UNL465      0.1146
   1859 H           7.4455    6.9700    9.6946 H     465  UNL465      0.1146
   1860 H           7.2967    5.9217   10.9308 H     465  UNL465      0.1146
   1861 N           6.7524    6.8265   13.1658 N.3   466  UNL466     -0.3437
   1862 H           6.2652    6.0246   12.7684 H     466  UNL466      0.1146
   1863 H           7.3951    6.4487   13.8605 H     466  UNL466      0.1146
   1864 H           7.3351    7.2000   12.4179 H     466  UNL466      0.1146
   1865 N           6.7269    6.4980   15.8587 N.3   467  UNL467     -0.3437
   1866 H           6.3490    7.1470   15.1700 H     467  UNL467      0.1146
   1867 H           7.2789    5.8212   15.3337 H     467  UNL467      0.1146
   1868 H           7.3930    7.0337   16.4135 H     467  UNL467      0.1146
   1869 N           6.7985    6.5542   18.0834 N.3   468  UNL468     -0.3437
   1870 H           6.1770    6.5481   18.8909 H     468  UNL468      0.1146
   1871 H           7.2143    7.4841   18.0561 H     468  UNL468      0.1146
   1872 H           7.5581    5.9134   18.3087 H     468  UNL468      0.1146
   1873 N           7.0998    6.7656   20.7729 N.3   469  UNL469     -0.3437
   1874 H           6.3036    7.3167   21.0902 H     469  UNL469      0.1146
   1875 H           7.6302    6.5303   21.6106 H     469  UNL469      0.1146
   1876 H           6.7142    5.8873   20.4288 H     469  UNL469      0.1146
   1877 N           6.7121    6.7637   23.7491 N.3   470  UNL470     -0.3437
   1878 H           7.3448    6.3164   24.4109 H     470  UNL470      0.1146
   1879 H           7.2882    7.3917   23.1903 H     470  UNL470      0.1146
   1880 H           6.4026    6.0281   23.1154 H     470  UNL470      0.1146
   1881 N           6.7504    6.7762   26.4296 N.3   471  UNL471     -0.3437
   1882 H           6.2704    6.1685   25.7673 H     471  UNL471      0.1146
   1883 H           7.3768    6.1733   26.9610 H     471  UNL471      0.1146
   1884 H           7.3503    7.3818   25.8712 H     471  UNL471      0.1146
   1885 N           6.7494    6.7666   29.0774 N.3   472  UNL472     -0.3437
   1886 H           6.2741    6.1687   28.4029 H     472  UNL472      0.1146
   1887 H           7.3964    6.1620   29.5817 H     472  UNL472      0.1146
   1888 H           7.3279    7.4026   28.5304 H     472  UNL472      0.1146
   1889 N           4.7984    6.7841   31.7460 N.3   473  UNL473     -0.3437
   1890 H           5.3575    6.0280   32.1385 H     473  UNL473      0.1146
   1891 H           5.4376    7.3423   31.1818 H     473  UNL473      0.1146
   1892 H           4.1543    6.3455   31.0894 H     473  UNL473      0.1146
   1893 N           6.7454    4.4002   34.1665 N.3   474  UNL474     -0.3437
   1894 H           6.3899    5.2475   33.7260 H     474  UNL474      0.1146
   1895 H           7.6293    4.1927   33.7038 H     474  UNL474      0.1146
   1896 H           6.9832    4.6594   35.1228 H     474  UNL474      0.1146
   1897 N           5.0250    9.2783   -0.3788 N.3   475  UNL475     -0.3437
   1898 H           5.8029    9.7128    0.1154 H     475  UNL475      0.1146
   1899 H           4.5090    8.7472    0.3212 H     475  UNL475      0.1146
   1900 H           4.4109   10.0407   -0.6617 H     475  UNL475      0.1146
   1901 N           6.7456    9.5964    2.6565 N.3   476  UNL476     -0.3437
   1902 H           6.2964    9.1191    1.8763 H     476  UNL476      0.1146
   1903 H           7.2394    8.8751    3.1803 H     476  UNL476      0.1146
   1904 H           7.4664   10.1884    2.2462 H     476  UNL476      0.1146
   1905 N           6.7849    9.6081    5.3245 N.3   477  UNL477     -0.3437
   1906 H           6.1819    9.0664    4.7069 H     477  UNL477      0.1146
   1907 H           7.4026    8.9347    5.7755 H     477  UNL477      0.1146
   1908 H           7.3784   10.1698    4.7158 H     477  UNL477      0.1146
   1909 N           6.7647    9.6365    7.9163 N.3   478  UNL478     -0.3437
   1910 H           6.2310    8.9633    7.3682 H     478  UNL478      0.1146
   1911 H           7.3537    9.0867    8.5402 H     478  UNL478      0.1146
   1912 H           7.3984   10.0925    7.2613 H     478  UNL478      0.1146
   1913 N           6.7471    9.5874   10.5883 N.3   479  UNL479     -0.3437
   1914 H           6.2817    8.9648    9.9295 H     479  UNL479      0.1146
   1915 H           7.4051    9.0070   11.1066 H     479  UNL479      0.1146
   1916 H           7.3138   10.2197   10.0249 H     479  UNL479      0.1146
   1917 N           6.7744    9.5929   13.2506 N.3   480  UNL480     -0.3437
   1918 H           6.2065    9.0703   12.5852 H     480  UNL480      0.1146
   1919 H           7.3969    8.9124   13.6839 H     480  UNL480      0.1146
   1920 H           7.3700   10.2033   12.6929 H     480  UNL480      0.1146
   1921 N           6.7429    9.3742   15.4824 N.3   481  UNL481     -0.3437
   1922 H           6.2931    9.6980   16.3375 H     481  UNL481      0.1146
   1923 H           7.3798   10.1182   15.2009 H     481  UNL481      0.1146
   1924 H           7.3319    8.5886   15.7551 H     481  UNL481      0.1146
   1925 N           6.7362    9.2302   18.3669 N.3   482  UNL482     -0.3437
   1926 H           6.3157   10.1554   18.2931 H     482  UNL482      0.1146
   1927 H           7.3073    9.1137   17.5311 H     482  UNL482      0.1146
   1928 H           7.3886    9.2796   19.1481 H     482  UNL482      0.1146
   1929 N           6.7079    9.3116   21.1068 N.3   483  UNL483     -0.3437
   1930 H           6.4191   10.0080   20.4213 H     483  UNL483      0.1146
   1931 H           7.3103    8.6588   20.6073 H     483  UNL483      0.1146
   1932 H           7.3105    9.8006   21.7672 H     483  UNL483      0.1146
   1933 N           7.0984    9.6111   23.7998 N.3   484  UNL484     -0.3437
   1934 H           6.4323   10.1573   23.2555 H     484  UNL484      0.1146
   1935 H           6.5498    8.9049   24.2884 H     484  UNL484      0.1146
   1936 H           7.6673    9.1056   23.1221 H     484  UNL484      0.1146
   1937 N           6.8000    9.6179   26.4538 N.3   485  UNL485     -0.3437
   1938 H           6.1505    9.0695   25.8920 H     485  UNL485      0.1146
   1939 H           7.4294    8.9463   26.8912 H     485  UNL485      0.1146
   1940 H           7.3678   10.1452   25.7921 H     485  UNL485      0.1146
   1941 N           6.8017    9.6715   29.0310 N.3   486  UNL486     -0.3437
   1942 H           6.1465    8.9983   28.6360 H     486  UNL486      0.1146
   1943 H           7.3996    9.1429   29.6647 H     486  UNL486      0.1146
   1944 H           7.4001    9.9663   28.2607 H     486  UNL486      0.1146
   1945 N           6.7321    9.5933   31.6918 N.3   487  UNL487     -0.3437
   1946 H           6.3277    8.9277   31.0347 H     487  UNL487      0.1146
   1947 H           7.3561    9.0536   32.2900 H     487  UNL487      0.1146
   1948 H           7.3318   10.2044   31.1393 H     487  UNL487      0.1146
   1949 N           7.1734    7.5326   35.3338 N.3   488  UNL488     -0.3437
   1950 H           7.2913    7.6519   34.3287 H     488  UNL488      0.1146
   1951 H           6.3289    8.0468   35.5805 H     488  UNL488      0.1146
   1952 H           6.9542    6.5477   35.4760 H     488  UNL488      0.1146
   1953 N           6.7101   12.2191   -0.3350 N.3   489  UNL489     -0.3437
   1954 H           6.4165   12.5834    0.5703 H     489  UNL489      0.1146
   1955 H           7.3867   12.8876   -0.7007 H     489  UNL489      0.1146
   1956 H           7.2345   11.3678   -0.1384 H     489  UNL489      0.1146
   1957 N           6.7269   12.4046    2.6436 N.3   490  UNL490     -0.3437
   1958 H           6.3468   11.7302    1.9810 H     490  UNL490      0.1146
   1959 H           7.3689   11.8827    3.2384 H     490  UNL490      0.1146
   1960 H           7.3052   13.0406    2.0964 H     490  UNL490      0.1146
   1961 N           6.8123   12.4119    5.3545 N.3   491  UNL491     -0.3437
   1962 H           6.1271   11.9648    4.7471 H     491  UNL491      0.1146
   1963 H           7.4351   11.6695    5.6697 H     491  UNL491      0.1146
   1964 H           7.3733   13.0118    4.7513 H     491  UNL491      0.1146
   1965 N           6.8403   12.0621    7.5790 N.3   492  UNL492     -0.3437
   1966 H           6.0811   12.5569    8.0451 H     492  UNL492      0.1146
   1967 H           7.4159   12.7797    7.1406 H     492  UNL492      0.1146
   1968 H           7.4106   11.6594    8.3213 H     492  UNL492      0.1146
   1969 N           6.7449   12.4154   10.5789 N.3   493  UNL493     -0.3437
   1970 H           6.2875   11.7688    9.9376 H     493  UNL493      0.1146
   1971 H           7.3897   11.8530   11.1323 H     493  UNL493      0.1146
   1972 H           7.3257   13.0208   10.0005 H     493  UNL493      0.1146
   1973 N           6.7536   12.4364   13.2088 N.3   494  UNL494     -0.3437
   1974 H           6.2610   11.7714   12.6141 H     494  UNL494      0.1146
   1975 H           7.3704   11.8811   13.8001 H     494  UNL494      0.1146
   1976 H           7.3628   12.9692   12.5897 H     494  UNL494      0.1146
   1977 N           6.7771   12.4277   15.8815 N.3   495  UNL495     -0.3437
   1978 H           6.1999   11.8825   15.2428 H     495  UNL495      0.1146
   1979 H           7.3797   11.7576   16.3571 H     495  UNL495      0.1146
   1980 H           7.3912   12.9903   15.2944 H     495  UNL495      0.1146
   1981 N           6.7326   12.1571   18.1502 N.3   496  UNL496     -0.3437
   1982 H           6.3312   12.5240   19.0119 H     496  UNL496      0.1146
   1983 H           7.2694   12.9215   17.7426 H     496  UNL496      0.1146
   1984 H           7.4147   11.4555   18.4345 H     496  UNL496      0.1146
   1985 N           6.7249   12.1626   20.7966 N.3   497  UNL497     -0.3437
   1986 H           6.3558   12.7083   21.5740 H     497  UNL497      0.1146
   1987 H           7.3877   12.7700   20.3168 H     497  UNL497      0.1146
   1988 H           7.2793   11.4171   21.2151 H     497  UNL497      0.1146
   1989 N           6.7120   12.1107   23.5019 N.3   498  UNL498     -0.3437
   1990 H           6.4198   13.0069   23.8889 H     498  UNL498      0.1146
   1991 H           7.4344   12.3233   22.8153 H     498  UNL498      0.1146
   1992 H           7.1816   11.6172   24.2598 H     498  UNL498      0.1146
   1993 N           6.7704   12.4032   26.4583 N.3   499  UNL499     -0.3437
   1994 H           6.2184   11.8588   25.7970 H     499  UNL499      0.1146
   1995 H           7.4314   11.7503   26.8768 H     499  UNL499      0.1146
   1996 H           7.3276   13.0458   25.8971 H     499  UNL499      0.1146
   1997 N           6.7286   12.2304   28.6912 N.3   500  UNL500     -0.3437
   1998 H           6.3542   12.1894   29.6381 H     500  UNL500      0.1146
   1999 H           7.2131   13.1240   28.6192 H     500  UNL500      0.1146
   2000 H           7.4519   11.5142   28.6439 H     500  UNL500      0.1146
   2001 N           6.7595   12.4649   31.6643 N.3   501  UNL501     -0.3437
   2002 H           6.2449   11.7036   31.2239 H     501  UNL501      0.1146
   2003 H           7.3927   12.0269   32.3318 H     501  UNL501      0.1146
   2004 H           7.3507   12.8626   30.9358 H     501  UNL501      0.1146
   2005 N           6.7584   10.4996   34.1953 N.3   502  UNL502     -0.3437
   2006 H           6.2804    9.6629   33.8639 H     502  UNL502      0.1146
   2007 H           7.1643   10.2528   35.0968 H     502  UNL502      0.1146
   2008 H           7.5446   10.6428   33.5631 H     502  UNL502      0.1146
   2009 N           6.7522   15.2479    0.0117 N.3   503  UNL503     -0.3437
   2010 H           6.2981   14.8284   -0.7984 H     503  UNL503      0.1146
   2011 H           7.1605   14.4754    0.5361 H     503  UNL503      0.1146
   2012 H           7.5371   15.7854   -0.3533 H     503  UNL503      0.1146
   2013 N           6.8230   15.3286    2.6112 N.3   504  UNL504     -0.3437
   2014 H           6.1539   14.8302    2.0261 H     504  UNL504      0.1146
   2015 H           7.1438   14.6561    3.3063 H     504  UNL504      0.1146
   2016 H           7.6270   15.5223    2.0159 H     504  UNL504      0.1146
   2017 N           6.8441   15.2970    5.3137 N.3   505  UNL505     -0.3437
   2018 H           6.1306   15.0149    4.6431 H     505  UNL505      0.1146
   2019 H           7.1199   14.4476    5.8044 H     505  UNL505      0.1146
   2020 H           7.6532   15.5776    4.7615 H     505  UNL505      0.1146
   2021 N           6.7911   15.2086    7.9966 N.3   506  UNL506     -0.3437
   2022 H           6.1919   15.0222    7.1938 H     506  UNL506      0.1146
   2023 H           7.2130   14.3150    8.2456 H     506  UNL506      0.1146
   2024 H           7.5518   15.7914    7.6501 H     506  UNL506      0.1146
   2025 N           6.7570   15.2500   10.5782 N.3   507  UNL507     -0.3437
   2026 H           6.2524   14.6596    9.9185 H     507  UNL507      0.1146
   2027 H           7.3358   14.6208   11.1326 H     507  UNL507      0.1146
   2028 H           7.4026   15.8068   10.0200 H     507  UNL507      0.1146
   2029 N           6.7444   15.2153   13.2352 N.3   508  UNL508     -0.3437
   2030 H           6.2893   14.6417   12.5264 H     508  UNL508      0.1146
   2031 H           7.3910   14.5975   13.7237 H     508  UNL508      0.1146
   2032 H           7.3231   15.8827   12.7273 H     508  UNL508      0.1146
   2033 N           6.9949   14.8744   15.8939 N.3   509  UNL509     -0.3437
   2034 H           7.8378   15.2525   15.4640 H     509  UNL509      0.1146
   2035 H           6.5003   15.6719   16.2914 H     509  UNL509      0.1146
   2036 H           6.4148   14.5383   15.1266 H     509  UNL509      0.1146
   2037 N           6.7426   14.9681   18.1448 N.3   510  UNL510     -0.3437
   2038 H           7.0837   14.2894   18.8241 H     510  UNL510      0.1146
   2039 H           6.3517   15.7367   18.6877 H     510  UNL510      0.1146
   2040 H           7.5698   15.3429   17.6826 H     510  UNL510      0.1146
   2041 N           6.6800   15.2128   20.9062 N.3   511  UNL511     -0.3437
   2042 H           7.3889   15.3346   20.1845 H     511  UNL511      0.1146
   2043 H           6.5925   14.2074   21.0473 H     511  UNL511      0.1146
   2044 H           7.0864   15.5824   21.7645 H     511  UNL511      0.1146
   2045 N           6.7191   15.1730   23.7955 N.3   512  UNL512     -0.3437
   2046 H           6.3800   14.6373   22.9977 H     512  UNL512      0.1146
   2047 H           7.3980   14.5764   24.2662 H     512  UNL512      0.1146
   2048 H           7.2506   15.9504   23.4064 H     512  UNL512      0.1146
   2049 N           6.7546   15.2604   26.4092 N.3   513  UNL513     -0.3437
   2050 H           6.2603   14.6344   25.7751 H     513  UNL513      0.1146
   2051 H           7.3180   14.6623   27.0119 H     513  UNL513      0.1146
   2052 H           7.4150   15.7800   25.8328 H     513  UNL513      0.1146
   2053 N           6.7781   15.2691   29.0654 N.3   514  UNL514     -0.3437
   2054 H           6.2003   14.7039   28.4448 H     514  UNL514      0.1146
   2055 H           7.3256   14.6101   29.6170 H     514  UNL514      0.1146
   2056 H           7.4438   15.7540   28.4652 H     514  UNL514      0.1146
   2057 N           6.7804   15.3152   31.6367 N.3   515  UNL515     -0.3437
   2058 H           6.2035   14.6179   31.1684 H     515  UNL515      0.1146
   2059 H           7.2649   14.8221   32.3854 H     515  UNL515      0.1146
   2060 H           7.4990   15.5819   30.9652 H     515  UNL515      0.1146
   2061 N           7.1576   13.2737   35.2325 N.3   516  UNL516     -0.3437
   2062 H           7.1117   12.9843   34.2566 H     516  UNL516      0.1146
   2063 H           6.2423   13.6634   35.4534 H     516  UNL516      0.1146
   2064 H           7.2362   12.4157   35.7766 H     516  UNL516      0.1146
   2065 N           6.7682   18.0715    0.0247 N.3   517  UNL517     -0.3437
   2066 H           6.2217   17.4763   -0.5962 H     517  UNL517      0.1146
   2067 H           7.3808   17.4459    0.5461 H     517  UNL517      0.1146
   2068 H           7.3771   18.6225   -0.5785 H     517  UNL517      0.1146
   2069 N           6.7913   18.0887    2.6689 N.3   518  UNL518     -0.3437
   2070 H           6.1683   17.4863    2.1328 H     518  UNL518      0.1146
   2071 H           7.4201   17.4650    3.1729 H     518  UNL518      0.1146
   2072 H           7.3681   18.5762    1.9848 H     518  UNL518      0.1146
   2073 N           6.7453   17.7517    4.9651 N.3   519  UNL519     -0.3437
   2074 H           6.3245   18.1194    5.8172 H     519  UNL519      0.1146
   2075 H           7.1370   18.5553    4.4759 H     519  UNL519      0.1146
   2076 H           7.5410   17.1899    5.2645 H     519  UNL519      0.1146
   2077 N           6.7457   18.1047    7.8742 N.3   520  UNL520     -0.3437
   2078 H           6.2849   17.2759    7.5014 H     520  UNL520      0.1146
   2079 H           7.3888   17.7703    8.5905 H     520  UNL520      0.1146
   2080 H           7.3285   18.4653    7.1200 H     520  UNL520      0.1146
   2081 N           6.7587   18.0813   10.5679 N.3   521  UNL521     -0.3437
   2082 H           6.2516   17.4938    9.9075 H     521  UNL521      0.1146
   2083 H           7.2935   17.4447   11.1570 H     521  UNL521      0.1146
   2084 H           7.4439   18.5964   10.0169 H     521  UNL521      0.1146
   2085 N           6.7576   18.0967   13.1876 N.3   522  UNL522     -0.3437
   2086 H           6.2499   17.3658   12.6912 H     522  UNL522      0.1146
   2087 H           7.3779   17.6159   13.8376 H     522  UNL522      0.1146
   2088 H           7.3624   18.5378   12.4963 H     522  UNL522      0.1146
   2089 N           6.7110   17.8193   15.8646 N.3   523  UNL523     -0.3437
   2090 H           6.4262   18.4547   15.1206 H     523  UNL523      0.1146
   2091 H           7.1725   17.0362   15.4039 H     523  UNL523      0.1146
   2092 H           7.4381   18.3061   16.3868 H     523  UNL523      0.1146
   2093 N           6.7760   18.0525   18.5333 N.3   524  UNL524     -0.3437
   2094 H           6.2216   17.3906   17.9921 H     524  UNL524      0.1146
   2095 H           7.5247   17.5089   18.9602 H     524  UNL524      0.1146
   2096 H           7.2255   18.6642   17.8535 H     524  UNL524      0.1146
   2097 N           6.7621   18.0726   21.1442 N.3   525  UNL525     -0.3437
   2098 H           6.2393   17.4083   20.5751 H     525  UNL525      0.1146
   2099 H           7.4202   17.5181   21.6899 H     525  UNL525      0.1146
   2100 H           7.3261   18.6172   20.4933 H     525  UNL525      0.1146
   2101 N           6.8053   18.0919   23.8029 N.3   526  UNL526     -0.3437
   2102 H           6.1475   17.4559   23.3542 H     526  UNL526      0.1146
   2103 H           7.4980   17.5019   24.2617 H     526  UNL526      0.1146
   2104 H           7.2970   18.5665   23.0470 H     526  UNL526      0.1146
   2105 N           6.7693   18.0808   26.4247 N.3   527  UNL527     -0.3437
   2106 H           6.2200   17.4953   25.7973 H     527  UNL527      0.1146
   2107 H           7.3416   17.4424   26.9756 H     527  UNL527      0.1146
   2108 H           7.4169   18.5977   25.8316 H     527  UNL527      0.1146
   2109 N           6.7227   18.0551   29.0347 N.3   528  UNL528     -0.3437
   2110 H           6.3865   17.1930   28.6080 H     528  UNL528      0.1146
   2111 H           7.4754   17.7817   29.6648 H     528  UNL528      0.1146
   2112 H           7.1632   18.5864   28.2850 H     528  UNL528      0.1146
   2113 N           6.7265   17.7281   31.6490 N.3   529  UNL529     -0.3437
   2114 H           6.3621   18.4118   30.9871 H     529  UNL529      0.1146
   2115 H           7.4503   17.2125   31.1504 H     529  UNL529      0.1146
   2116 H           7.2089   18.2638   32.3692 H     529  UNL529      0.1146
   2117 N           6.7714   16.1408   34.1171 N.3   530  UNL530     -0.3437
   2118 H           6.2945   15.2625   33.9182 H     530  UNL530      0.1146
   2119 H           7.0417   16.0976   35.0986 H     530  UNL530      0.1146
   2120 H           7.6402   16.1153   33.5852 H     530  UNL530      0.1146
   2121 N           4.7647   20.5671   -0.3330 N.3   531  UNL531     -0.3437
   2122 H           4.2329   21.1873    0.2759 H     531  UNL531      0.1146
   2123 H           5.4262   21.1614   -0.8306 H     531  UNL531      0.1146
   2124 H           5.3240   19.9796    0.2838 H     531  UNL531      0.1146
   2125 N           6.7366   20.6015    2.3103 N.3   532  UNL532     -0.3437
   2126 H           6.3210   21.2380    2.9889 H     532  UNL532      0.1146
   2127 H           7.4368   21.1450    1.8075 H     532  UNL532      0.1146
   2128 H           7.2535   19.9110    2.8528 H     532  UNL532      0.1146
   2129 N           7.1283   20.8801    4.9685 N.3   533  UNL533     -0.3437
   2130 H           7.5883   20.2867    5.6574 H     533  UNL533      0.1146
   2131 H           6.5490   20.2593    4.4051 H     533  UNL533      0.1146
   2132 H           6.4822   21.4692    5.4918 H     533  UNL533      0.1146
   2133 N           6.7609   20.5733    7.5879 N.3   534  UNL534     -0.3437
   2134 H           6.2411   21.1063    8.2836 H     534  UNL534      0.1146
   2135 H           7.3528   21.2463    7.1030 H     534  UNL534      0.1146
   2136 H           7.3931   19.9695    8.1115 H     534  UNL534      0.1146
   2137 N           6.7540   20.5431   10.2666 N.3   535  UNL535     -0.3437
   2138 H           6.2607   21.2660   10.7884 H     535  UNL535      0.1146
   2139 H           7.3989   21.0334    9.6485 H     535  UNL535      0.1146
   2140 H           7.3342   20.0528   10.9458 H     535  UNL535      0.1146
   2141 N           6.7475   20.5566   12.8998 N.3   536  UNL536     -0.3437
   2142 H           6.2787   21.2201   13.5149 H     536  UNL536      0.1146
   2143 H           7.3576   21.1113   12.3011 H     536  UNL536      0.1146
   2144 H           7.3640   20.0073   13.4969 H     536  UNL536      0.1146
   2145 N           6.7473   20.5605   15.5366 N.3   537  UNL537     -0.3437
   2146 H           6.2793   21.2256   16.1507 H     537  UNL537      0.1146
   2147 H           7.3733   21.1115   14.9510 H     537  UNL537      0.1146
   2148 H           7.3478   19.9978   16.1376 H     537  UNL537      0.1146
   2149 N           6.7621   20.5570   18.1646 N.3   538  UNL538     -0.3437
   2150 H           6.2384   21.1991   18.7577 H     538  UNL538      0.1146
   2151 H           7.4039   21.1346   17.6235 H     538  UNL538      0.1146
   2152 H           7.3435   20.0047   18.7934 H     538  UNL538      0.1146
   2153 N           6.7601   20.5525   20.8121 N.3   539  UNL539     -0.3437
   2154 H           6.2430   21.1982   21.4071 H     539  UNL539      0.1146
   2155 H           7.3832   21.1284   20.2476 H     539  UNL539      0.1146
   2156 H           7.3615   20.0162   21.4358 H     539  UNL539      0.1146
   2157 N           6.7629   20.5597   23.4429 N.3   540  UNL540     -0.3437
   2158 H           6.2360   21.1340   24.0994 H     540  UNL540      0.1146
   2159 H           7.3509   21.2036   22.9156 H     540  UNL540      0.1146
   2160 H           7.3981   19.9980   24.0080 H     540  UNL540      0.1146
   2161 N           6.7406   20.5472   26.1246 N.3   541  UNL541     -0.3437
   2162 H           6.2999   21.2792   26.6799 H     541  UNL541      0.1146
   2163 H           7.3509   21.0253   25.4632 H     541  UNL541      0.1146
   2164 H           7.3564   20.0437   26.7615 H     541  UNL541      0.1146
   2165 N           6.7400   20.5614   28.7491 N.3   542  UNL542     -0.3437
   2166 H           6.3022   21.2601   29.3479 H     542  UNL542      0.1146
   2167 H           7.3730   21.0736   28.1363 H     542  UNL542      0.1146
   2168 H           7.3326   20.0002   29.3591 H     542  UNL542      0.1146
   2169 N           6.7538   20.5588   31.3758 N.3   543  UNL543     -0.3437
   2170 H           6.2604   21.1817   32.0137 H     543  UNL543      0.1146
   2171 H           7.3561   21.1555   30.8104 H     543  UNL543      0.1146
   2172 H           7.3775   19.9994   31.9558 H     543  UNL543      0.1146
   2173 N           6.6447   20.7569   34.1499 N.3   544  UNL544     -0.3437
   2174 H           6.9621   19.8192   33.9082 H     544  UNL544      0.1146
   2175 H           6.9650   20.9250   35.1025 H     544  UNL544      0.1146
   2176 H           7.1760   21.3943   33.5584 H     544  UNL544      0.1146
   2177 N           6.7420   23.3812   -0.3026 N.3   545  UNL545     -0.3437
   2178 H           6.2966   24.0846    0.2849 H     545  UNL545      0.1146
   2179 H           7.3875   23.8877   -0.9069 H     545  UNL545      0.1146
   2180 H           7.3218   22.8209    0.3206 H     545  UNL545      0.1146
   2181 N           6.7473   23.4006    2.3139 N.3   546  UNL546     -0.3437
   2182 H           6.2796   23.9947    2.9970 H     546  UNL546      0.1146
   2183 H           7.3804   24.0102    1.7982 H     546  UNL546      0.1146
   2184 H           7.3405   22.7691    2.8504 H     546  UNL546      0.1146
   2185 N           6.7567   23.3740    4.9691 N.3   547  UNL547     -0.3437
   2186 H           6.2522   24.0138    5.5811 H     547  UNL547      0.1146
   2187 H           7.3683   23.9554    4.3978 H     547  UNL547      0.1146
   2188 H           7.3706   22.8313    5.5748 H     547  UNL547      0.1146
   2189 N           6.7264   23.3932    7.6286 N.3   548  UNL548     -0.3437
   2190 H           6.3479   24.0993    8.2583 H     548  UNL548      0.1146
   2191 H           7.3549   23.8878    6.9971 H     548  UNL548      0.1146
   2192 H           7.3186   22.7941    8.2019 H     548  UNL548      0.1146
   2193 N           6.7327   23.3931   10.2606 N.3   549  UNL549     -0.3437
   2194 H           6.3273   24.0979   10.8748 H     549  UNL549      0.1146
   2195 H           7.3864   23.8894    9.6566 H     549  UNL549      0.1146
   2196 H           7.3013   22.7940   10.8574 H     549  UNL549      0.1146
   2197 N           6.7455   23.3946   12.8843 N.3   550  UNL550     -0.3437
   2198 H           6.2849   24.0104   13.5529 H     550  UNL550      0.1146
   2199 H           7.3716   23.9876   12.3413 H     550  UNL550      0.1146
   2200 H           7.3458   22.7818   13.4342 H     550  UNL550      0.1146
   2201 N           6.7356   23.4025   15.5299 N.3   551  UNL551     -0.3437
   2202 H           6.3164   24.0329   16.2120 H     551  UNL551      0.1146
   2203 H           7.3689   23.9734   14.9718 H     551  UNL551      0.1146
   2204 H           7.3269   22.7657   16.0622 H     551  UNL551      0.1146
   2205 N           6.7730   23.4193   18.1226 N.3   552  UNL552     -0.3437
   2206 H           6.2321   24.0339   18.7293 H     552  UNL552      0.1146
   2207 H           7.5324   23.9883   17.7514 H     552  UNL552      0.1146
   2208 H           7.2103   22.7330   18.7359 H     552  UNL552      0.1146
   2209 N           6.7667   23.3936   20.7862 N.3   553  UNL553     -0.3437
   2210 H           6.2264   23.9648   21.4345 H     553  UNL553      0.1146
   2211 H           7.4094   24.0312   20.3185 H     553  UNL553      0.1146
   2212 H           7.3453   22.7849   21.3633 H     553  UNL553      0.1146
   2213 N           6.6798   23.6892   23.6241 N.3   554  UNL554     -0.3437
   2214 H           6.5875   22.7116   23.8965 H     554  UNL554      0.1146
   2215 H           7.3783   24.0900   24.2485 H     554  UNL554      0.1146
   2216 H           7.1022   23.6837   22.6968 H     554  UNL554      0.1146
   2217 N           6.7876   23.4492   26.0203 N.3   555  UNL555     -0.3437
   2218 H           6.1763   23.7818   26.7647 H     555  UNL555      0.1146
   2219 H           7.4170   24.2218   25.8074 H     555  UNL555      0.1146
   2220 H           7.3669   22.7216   26.4368 H     555  UNL555      0.1146
   2221 N           6.7293   23.3931   28.7511 N.3   556  UNL556     -0.3437
   2222 H           6.3373   24.0709   29.4032 H     556  UNL556      0.1146
   2223 H           7.3451   23.9208   28.1340 H     556  UNL556      0.1146
   2224 H           7.3361   22.7896   29.3042 H     556  UNL556      0.1146
   2225 N           6.7420   23.4058   31.3647 N.3   557  UNL557     -0.3437
   2226 H           6.2966   24.0131   32.0511 H     557  UNL557      0.1146
   2227 H           7.3875   23.9972   30.8432 H     557  UNL557      0.1146
   2228 H           7.3218   22.7584   31.8968 H     557  UNL557      0.1146
   2229 N           6.7279   23.4051   34.0233 N.3   558  UNL558     -0.3437
   2230 H           6.7474   23.1138   34.9996 H     558  UNL558      0.1146
   2231 H           6.6065   24.4168   34.0344 H     558  UNL558      0.1146
   2232 H           7.6660   23.2388   33.6617 H     558  UNL558      0.1146
   2233 N           6.7363   26.4578    0.0445 N.3   559  UNL559     -0.3437
   2234 H           6.3185   25.9574   -0.7387 H     559  UNL559      0.1146
   2235 H           7.4166   25.8196    0.4548 H     559  UNL559      0.1146
   2236 H           7.2765   27.2189   -0.3645 H     559  UNL559      0.1146
   2237 N           6.7554   26.5124    2.6693 N.3   560  UNL560     -0.3437
   2238 H           6.2560   25.9305    1.9981 H     560  UNL560      0.1146
   2239 H           7.3811   25.8858    3.1735 H     560  UNL560      0.1146
   2240 H           7.3553   27.1248    2.1184 H     560  UNL560      0.1146
   2241 N           6.7544   26.4836    5.3297 N.3   561  UNL561     -0.3437
   2242 H           6.2677   25.9005    4.6504 H     561  UNL561      0.1146
   2243 H           7.4636   25.8877    5.7545 H     561  UNL561      0.1146
   2244 H           7.2620   27.1818    4.7881 H     561  UNL561      0.1146
   2245 N           6.7065   26.2665    7.9293 N.3   562  UNL562     -0.3437
   2246 H           7.2679   25.5078    7.5453 H     562  UNL562      0.1146
   2247 H           7.3464   26.8399    8.4772 H     562  UNL562      0.1146
   2248 H           6.4270   26.8393    7.1342 H     562  UNL562      0.1146
   2249 N           6.7101   26.4203   10.2316 N.3   563  UNL563     -0.3437
   2250 H           6.4106   26.0972   11.1505 H     563  UNL563      0.1146
   2251 H           7.2959   27.2373   10.3984 H     563  UNL563      0.1146
   2252 H           7.3313   25.6987    9.8689 H     563  UNL563      0.1146
   2253 N           6.7230   26.5345   13.1641 N.3   564  UNL564     -0.3437
   2254 H           6.3663   25.6693   12.7611 H     564  UNL564      0.1146
   2255 H           7.4084   26.2564   13.8650 H     564  UNL564      0.1146
   2256 H           7.2502   26.9934   12.4225 H     564  UNL564      0.1146
   2257 N           6.7447   26.4459   15.9028 N.3   565  UNL565     -0.3437
   2258 H           6.2881   26.0704   15.0728 H     565  UNL565      0.1146
   2259 H           7.3866   25.7218   16.2221 H     565  UNL565      0.1146
   2260 H           7.3285   27.2155   15.5783 H     565  UNL565      0.1146
   2261 N           6.7500   26.2773   18.1226 N.3   566  UNL566     -0.3437
   2262 H           6.2985   26.8431   18.8398 H     566  UNL566      0.1146
   2263 H           7.5205   26.8401   17.7647 H     566  UNL566      0.1146
   2264 H           7.1788   25.4932   18.6121 H     566  UNL566      0.1146
   2265 N           6.7471   26.2132   20.8060 N.3   567  UNL567     -0.3437
   2266 H           6.2803   26.8406   21.4593 H     567  UNL567      0.1146
   2267 H           7.3845   26.7952   20.2643 H     567  UNL567      0.1146
   2268 H           7.3359   25.6046   21.3730 H     567  UNL567      0.1146
   2269 N           6.7603   26.1860   23.4592 N.3   568  UNL568     -0.3437
   2270 H           6.2423   26.8372   24.0474 H     568  UNL568      0.1146
   2271 H           7.3669   26.7581   22.8734 H     568  UNL568      0.1146
   2272 H           7.3783   25.6722   24.0858 H     568  UNL568      0.1146
   2273 N           6.7330   26.2079   26.1103 N.3   569  UNL569     -0.3437
   2274 H           6.3264   26.9325   26.7002 H     569  UNL569      0.1146
   2275 H           7.3874   26.6841   25.4911 H     569  UNL569      0.1146
   2276 H           7.3010   25.6291   26.7275 H     569  UNL569      0.1146
   2277 N           6.7424   26.2213   28.7268 N.3   570  UNL570     -0.3437
   2278 H           6.2943   26.8192   29.4197 H     570  UNL570      0.1146
   2279 H           7.3671   26.8263   28.1956 H     570  UNL570      0.1146
   2280 H           7.3440   25.5869   29.2503 H     570  UNL570      0.1146
   2281 N           6.7273   26.2285   31.3802 N.3   571  UNL571     -0.3437
   2282 H           6.3444   26.8362   32.1029 H     571  UNL571      0.1146
   2283 H           7.3350   26.8166   30.8117 H     571  UNL571      0.1146
   2284 H           7.3411   25.5724   31.8610 H     571  UNL571      0.1146
   2285 N           7.0130   26.6443   34.2316 N.3   572  UNL572     -0.3437
   2286 H           6.0727   26.5546   33.8492 H     572  UNL572      0.1146
   2287 H           7.0299   26.0696   35.0730 H     572  UNL572      0.1146
   2288 H           7.6322   26.1850   33.5653 H     572  UNL572      0.1146
   2289 N           6.7375   30.0542   -0.3270 N.3   573  UNL573     -0.3437
   2290 H           6.3190   30.7192    0.3219 H     573  UNL573      0.1146
   2291 H           7.4434   30.5746   -0.8460 H     573  UNL573      0.1146
   2292 H           7.2479   29.3848    0.2472 H     573  UNL573      0.1146
   2293 N           6.7241   30.0709    2.3182 N.3   574  UNL574     -0.3437
   2294 H           6.3670   30.7293    3.0091 H     574  UNL574      0.1146
   2295 H           7.4323   30.5766    1.7880 H     574  UNL574      0.1146
   2296 H           7.2245   29.3558    2.8441 H     574  UNL574      0.1146
   2297 N           6.7199   30.1480    4.9332 N.3   575  UNL575     -0.3437
   2298 H           6.3801   30.4659    5.8397 H     575  UNL575      0.1146
   2299 H           7.4145   30.8325    4.6377 H     575  UNL575      0.1146
   2300 H           7.2334   29.2862    5.1121 H     575  UNL575      0.1146
   2301 N           6.6492   29.2181    7.7135 N.3   576  UNL576     -0.3437
   2302 H           7.1273   30.1020    7.8826 H     576  UNL576      0.1146
   2303 H           7.1531   28.7676    6.9509 H     576  UNL576      0.1146
   2304 H           6.8182   28.6450    8.5389 H     576  UNL576      0.1146
   2305 N           6.7594   30.1014   10.1905 N.3   577  UNL577     -0.3437
   2306 H           6.2461   30.4602   10.9944 H     577  UNL577      0.1146
   2307 H           7.4118   30.8371    9.9227 H     577  UNL577      0.1146
   2308 H           7.3305   29.3340   10.5416 H     577  UNL577      0.1146
   2309 N           6.7509   30.1012   12.8386 N.3   578  UNL578     -0.3437
   2310 H           6.2697   30.4674   13.6588 H     578  UNL578      0.1146
   2311 H           7.3969   30.8316   12.5426 H     578  UNL578      0.1146
   2312 H           7.3303   29.3325   13.1727 H     578  UNL578      0.1146
   2313 N           6.6858   30.1955   15.5386 N.3   579  UNL579     -0.3437
   2314 H           6.5526   30.4280   16.5217 H     579  UNL579      0.1146
   2315 H           7.3962   30.8386   15.1917 H     579  UNL579      0.1146
   2316 H           7.1132   29.2706   15.5240 H     579  UNL579      0.1146
   2317 N           6.7477   29.1555   18.1094 N.3   580  UNL580     -0.3437
   2318 H           6.9461   30.1280   18.3404 H     580  UNL580      0.1146
   2319 H           7.6505   28.7217   17.9217 H     580  UNL580      0.1146
   2320 H           6.4036   28.7275   18.9677 H     580  UNL580      0.1146
   2321 N           4.8520   30.1578   21.2576 N.3   581  UNL581     -0.3437
   2322 H           5.8197   30.4627   21.1637 H     581  UNL581      0.1146
   2323 H           4.2931   30.8321   20.7367 H     581  UNL581      0.1146
   2324 H           4.7830   29.2800   20.7446 H     581  UNL581      0.1146
   2325 N           6.8883   30.2280   23.3284 N.3   582  UNL582     -0.3437
   2326 H           7.0388   29.2459   23.5543 H     582  UNL582      0.1146
   2327 H           6.1110   30.5345   23.9117 H     582  UNL582      0.1146
   2328 H           7.7096   30.7242   23.6715 H     582  UNL582      0.1146
   2329 N           6.7594   30.1014   26.0355 N.3   583  UNL583     -0.3437
   2330 H           6.2461   30.4602   26.8394 H     583  UNL583      0.1146
   2331 H           7.4118   30.8371   25.7677 H     583  UNL583      0.1146
   2332 H           7.3305   29.3340   26.3866 H     583  UNL583      0.1146
   2333 N           6.7748   30.0725   28.6771 N.3   584  UNL584     -0.3437
   2334 H           6.2054   30.4428   29.4368 H     584  UNL584      0.1146
   2335 H           7.3773   30.8382   28.3787 H     584  UNL584      0.1146
   2336 H           7.3903   29.3791   29.0998 H     584  UNL584      0.1146
   2337 N           6.6850   30.1360   31.3918 N.3   585  UNL585     -0.3437
   2338 H           6.5296   30.4540   32.3473 H     585  UNL585      0.1146
   2339 H           7.2717   30.8438   30.9521 H     585  UNL585      0.1146
   2340 H           7.2615   29.2989   31.4645 H     585  UNL585      0.1146
   2341 N           6.6418   29.1947   34.1674 N.3   586  UNL586     -0.3437
   2342 H           6.9839   28.7615   35.0240 H     586  UNL586      0.1146
   2343 H           7.0743   30.1165   34.1267 H     586  UNL586      0.1146
   2344 H           7.0478   28.6600   33.4008 H     586  UNL586      0.1146
   2345 N           9.7184    1.1431    2.4789 N.3   587  UNL587     -0.3437
   2346 H           8.9641    1.6327    2.9581 H     587  UNL587      0.1146
   2347 H           9.8332    0.2565    2.9680 H     587  UNL587      0.1146
   2348 H           9.3588    0.9093    1.5545 H     587  UNL587      0.1146
   2349 N           9.2891    0.8725    4.9248 N.3   588  UNL588     -0.3437
   2350 H           8.7880    1.3985    5.6394 H     588  UNL588      0.1146
   2351 H           9.9797    1.5135    4.5368 H     588  UNL588      0.1146
   2352 H           9.8179    0.1571    5.4217 H     588  UNL588      0.1146
   2353 N           9.2905    1.1429    7.9471 N.3   589  UNL589     -0.3437
   2354 H           8.7870    0.4521    7.3924 H     589  UNL589      0.1146
   2355 H           9.9981    0.6248    8.4661 H     589  UNL589      0.1146
   2356 H           9.7990    1.7219    7.2804 H     589  UNL589      0.1146
   2357 N           9.3023    0.8549   10.2058 N.3   590  UNL590     -0.3437
   2358 H           8.7476    1.3347   10.9133 H     590  UNL590      0.1146
   2359 H           9.9321    1.5565    9.8192 H     590  UNL590      0.1146
   2360 H           9.8926    0.1956   10.7111 H     590  UNL590      0.1146
   2361 N           9.3001    1.0631   13.2832 N.3   591  UNL591     -0.3437
   2362 H           8.7557    0.7141   12.4957 H     591  UNL591      0.1146
   2363 H           9.9655    0.3264   13.5132 H     591  UNL591      0.1146
   2364 H           9.8534    1.8381   12.9206 H     591  UNL591      0.1146
   2365 N           9.2870    0.8278   15.5221 N.3   592  UNL592     -0.3437
   2366 H           8.8082    1.5791   16.0168 H     592  UNL592      0.1146
   2367 H          10.0395    1.2717   14.9976 H     592  UNL592      0.1146
   2368 H           9.7399    0.2631   16.2394 H     592  UNL592      0.1146
   2369 N           9.5241   -0.8465   18.0981 N.3   593  UNL593     -0.3437
   2370 H           9.8415   -1.8078   17.9819 H     593  UNL593      0.1146
   2371 H           8.5305   -0.9033   18.3173 H     593  UNL593      0.1146
   2372 H           9.9785   -0.5007   18.9420 H     593  UNL593      0.1146
   2373 N           9.6882    0.8842   21.1457 N.3   594  UNL594     -0.3437
   2374 H           8.9175    1.2730   21.6872 H     594  UNL594      0.1146
   2375 H           9.2802    0.1599   20.5564 H     594  UNL594      0.1146
   2376 H           9.9887    1.6246   20.5133 H     594  UNL594      0.1146
   2377 N           9.2530    1.1025   23.7812 N.3   595  UNL595     -0.3437
   2378 H           8.9173    0.3746   23.1520 H     595  UNL595      0.1146
   2379 H           9.9877    0.6726   24.3414 H     595  UNL595      0.1146
   2380 H           9.7166    1.7919   23.1912 H     595  UNL595      0.1146
   2381 N           9.2294    0.8764   26.3923 N.3   596  UNL596     -0.3437
   2382 H           8.9966    1.5104   25.6293 H     596  UNL596      0.1146
   2383 H           9.8172    0.1505   25.9850 H     596  UNL596      0.1146
   2384 H           9.8314    1.4044   27.0225 H     596  UNL596      0.1146
   2385 N           9.2635    1.0863   29.0855 N.3   597  UNL597     -0.3437
   2386 H           8.8612    0.6073   28.2810 H     597  UNL597      0.1146
   2387 H           9.9002    0.4197   29.5197 H     597  UNL597      0.1146
   2388 H           9.8497    1.8284   28.7062 H     597  UNL597      0.1146
   2389 N           7.1224    1.1848   31.6184 N.3   598  UNL598     -0.3437
   2390 H           7.7009    0.8789   32.3995 H     598  UNL598      0.1146
   2391 H           7.7672    1.5387   30.9131 H     598  UNL598      0.1146
   2392 H           6.7121    0.3392   31.2247 H     598  UNL598      0.1146
   2393 N           9.7078    0.8119   35.1704 N.3   599  UNL599     -0.3437
   2394 H           8.9710    0.4359   35.7656 H     599  UNL599      0.1146
   2395 H           9.2850    0.9502   34.2536 H     599  UNL599      0.1146
   2396 H           9.9108    1.7437   35.5295 H     599  UNL599      0.1146
   2397 N           9.2894    3.9836    0.0021 N.3   600  UNL600     -0.3437
   2398 H           8.7828    3.3552   -0.6199 H     600  UNL600      0.1146
   2399 H           9.8580    3.3872    0.6017 H     600  UNL600      0.1146
   2400 H           9.9444    4.4948   -0.5877 H     600  UNL600      0.1146
   2401 N           9.2722    3.9673    2.6399 N.3   601  UNL601     -0.3437
   2402 H           8.8324    3.2672    2.0443 H     601  UNL601      0.1146
   2403 H           9.9099    3.4571    3.2494 H     601  UNL601      0.1146
   2404 H           9.8601    4.5292    2.0258 H     601  UNL601      0.1146
   2405 N           9.2998    3.9090    5.3500 N.3   602  UNL602     -0.3437
   2406 H           8.7554    3.4816    4.6021 H     602  UNL602      0.1146
   2407 H           9.9568    3.1954    5.6624 H     602  UNL602      0.1146
   2408 H           9.8626    4.6347    4.9083 H     602  UNL602      0.1146
   2409 N           9.2733    3.6654    7.5992 N.3   603  UNL603     -0.3437
   2410 H           8.8312    4.3059    8.2571 H     603  UNL603      0.1146
   2411 H           9.9389    4.2243    7.0673 H     603  UNL603      0.1146
   2412 H           9.8312    3.0251    8.1624 H     603  UNL603      0.1146
   2413 N           9.2161    3.7264   10.2806 N.3   604  UNL604     -0.3437
   2414 H           9.6664    2.9511   10.7647 H     604  UNL604      0.1146
   2415 H           9.0850    4.4560   10.9798 H     604  UNL604      0.1146
   2416 H           9.9071    4.0872    9.6243 H     604  UNL604      0.1146
   2417 N           9.2470    3.9348   12.9067 N.3   605  UNL605     -0.3437
   2418 H           8.9207    3.2905   13.6256 H     605  UNL605      0.1146
   2419 H           9.8501    4.6045   13.3825 H     605  UNL605      0.1146
   2420 H           9.8568    3.3909   12.2979 H     605  UNL605      0.1146
   2421 N           9.2070    3.9139   15.7781 N.3   606  UNL606     -0.3437
   2422 H           9.1233    3.0353   15.2689 H     606  UNL606      0.1146
   2423 H           9.8264    3.7248   16.5648 H     606  UNL606      0.1146
   2424 H           9.7179    4.5468   15.1642 H     606  UNL606      0.1146
   2425 N           9.3197    1.9662   18.1366 N.3   607  UNL607     -0.3437
   2426 H           9.3013    0.9689   17.9281 H     607  UNL607      0.1146
   2427 H           8.9495    2.0625   19.0811 H     607  UNL607      0.1146
   2428 H          10.3041    2.2231   18.1933 H     607  UNL607      0.1146
   2429 N           9.6945    3.9511   21.0984 N.3   608  UNL608     -0.3437
   2430 H           8.8812    4.5444   20.9406 H     608  UNL608      0.1146
   2431 H           9.3687    3.1746   21.6721 H     608  UNL608      0.1146
   2432 H           9.9303    3.5507   20.1915 H     608  UNL608      0.1146
   2433 N           9.2556    3.9751   23.7310 N.3   609  UNL609     -0.3437
   2434 H           8.8949    3.1181   23.3141 H     609  UNL609      0.1146
   2435 H           9.9421    3.6825   24.4249 H     609  UNL609      0.1146
   2436 H           9.7821    4.4450   22.9959 H     609  UNL609      0.1146
   2437 N           9.2684    3.9418   26.4264 N.3   610  UNL610     -0.3437
   2438 H           8.8452    3.3205   25.7384 H     610  UNL610      0.1146
   2439 H           9.9129    3.3659   26.9661 H     610  UNL610      0.1146
   2440 H           9.8481    4.5925   25.8982 H     610  UNL610      0.1146
   2441 N           9.2613    3.9437   29.0569 N.3   611  UNL611     -0.3437
   2442 H           8.8678    3.3226   28.3514 H     611  UNL611      0.1146
   2443 H           9.8754    3.3656   29.6289 H     611  UNL611      0.1146
   2444 H           9.8700    4.5888   28.5552 H     611  UNL611      0.1146
   2445 N           9.2210    3.9377   31.6310 N.3   612  UNL612     -0.3437
   2446 H           9.8237    3.6501   32.4007 H     612  UNL612      0.1146
   2447 H           9.7915    4.5375   31.0366 H     612  UNL612      0.1146
   2448 H           9.0384    3.0955   31.0874 H     612  UNL612      0.1146
   2449 N           9.3938    4.0188   35.3699 N.3   613  UNL613     -0.3437
   2450 H          10.3064    3.6131   35.5722 H     613  UNL613      0.1146
   2451 H           9.4398    4.3470   34.4062 H     613  UNL613      0.1146
   2452 H           8.7346    3.2418   35.3707 H     613  UNL613      0.1146
   2453 N           9.3248    6.4584   -0.3483 N.3   614  UNL614     -0.3437
   2454 H           8.7000    6.9004    0.3245 H     614  UNL614      0.1146
   2455 H           9.8521    7.2153   -0.7812 H     614  UNL614      0.1146
   2456 H           9.9977    5.9258    0.2011 H     614  UNL614      0.1146
   2457 N           9.6186    6.4679    2.6904 N.3   615  UNL615     -0.3437
   2458 H           9.2333    7.3301    3.0731 H     615  UNL615      0.1146
   2459 H           8.8286    5.9565    2.2995 H     615  UNL615      0.1146
   2460 H          10.1940    6.7454    1.8965 H     615  UNL615      0.1146
   2461 N           9.2732    6.7539    5.3111 N.3   616  UNL616     -0.3437
   2462 H           8.8335    6.1340    4.6323 H     616  UNL616      0.1146
   2463 H           9.9553    6.1848    5.8106 H     616  UNL616      0.1146
   2464 H           9.8126    7.4271    4.7687 H     616  UNL616      0.1146
   2465 N           9.2849    6.7148    7.9849 N.3   617  UNL617     -0.3437
   2466 H           8.7976    6.2819    7.2016 H     617  UNL617      0.1146
   2467 H           9.9606    6.0252    8.3110 H     617  UNL617      0.1146
   2468 H           9.8315    7.4780    7.5885 H     617  UNL617      0.1146
   2469 N           9.2839    6.4831   10.2304 N.3   618  UNL618     -0.3437
   2470 H           8.8333    6.7847   11.0932 H     618  UNL618      0.1146
   2471 H           9.6809    7.3233    9.8123 H     618  UNL618      0.1146
   2472 H          10.0766    5.9088   10.5134 H     618  UNL618      0.1146
   2473 N           9.2756    6.8100   13.1791 N.3   619  UNL619     -0.3437
   2474 H           8.8214    6.0532   12.6698 H     619  UNL619      0.1146
   2475 H           9.8921    6.3627   13.8561 H     619  UNL619      0.1146
   2476 H           9.8855    7.2741   12.5076 H     619  UNL619      0.1146
   2477 N           9.2707    6.7556   15.8704 N.3   620  UNL620     -0.3437
   2478 H           8.8403    6.1318   15.1892 H     620  UNL620      0.1146
   2479 H           9.9435    6.1887   16.3846 H     620  UNL620      0.1146
   2480 H           9.8201    7.4237   15.3317 H     620  UNL620      0.1146
   2481 N           9.2914    4.7597   18.5292 N.3   621  UNL621     -0.3437
   2482 H           9.1105    3.7594   18.4582 H     621  UNL621      0.1146
   2483 H          10.2781    4.8505   18.7668 H     621  UNL621      0.1146
   2484 H           9.1946    5.1303   17.5849 H     621  UNL621      0.1146
   2485 N           9.6631    6.7655   21.1483 N.3   622  UNL622     -0.3437
   2486 H           8.9431    7.3854   20.7800 H     622  UNL622      0.1146
   2487 H           9.1690    6.0201   21.6367 H     622  UNL622      0.1146
   2488 H          10.0994    6.3289   20.3375 H     622  UNL622      0.1146
   2489 N           9.6466    6.4203   23.4990 N.3   623  UNL623     -0.3437
   2490 H           9.9621    6.7383   24.4142 H     623  UNL623      0.1146
   2491 H           8.6936    6.0848   23.6313 H     623  UNL623      0.1146
   2492 H           9.5722    7.2565   22.9213 H     623  UNL623      0.1146
   2493 N           9.2670    6.7307   26.4457 N.3   624  UNL624     -0.3437
   2494 H           8.8576    6.1493   25.7158 H     624  UNL624      0.1146
   2495 H           9.9699    6.1526   26.9042 H     624  UNL624      0.1146
   2496 H           9.7802    7.4672   25.9634 H     624  UNL624      0.1146
   2497 N           9.2602    6.7471   29.0684 N.3   625  UNL625     -0.3437
   2498 H           8.8739    6.1398   28.3470 H     625  UNL625      0.1146
   2499 H           9.9152    6.1732   29.5975 H     625  UNL625      0.1146
   2500 H           9.8253    7.4398   28.5794 H     625  UNL625      0.1146
   2501 N           7.2750    6.7716   31.7073 N.3   626  UNL626     -0.3437
   2502 H           7.9507    6.2410   32.2551 H     626  UNL626      0.1146
   2503 H           7.8216    7.3878   31.1074 H     626  UNL626      0.1146
   2504 H           6.8273    6.0994   31.0859 H     626  UNL626      0.1146
   2505 N           9.6130    6.8618   35.0776 N.3   627  UNL627     -0.3437
   2506 H           8.9393    6.4919   34.4085 H     627  UNL627      0.1146
   2507 H           9.0861    7.0576   35.9276 H     627  UNL627      0.1146
   2508 H          10.2362    6.0885   35.3054 H     627  UNL627      0.1146
   2509 N           9.2450    9.3029   -0.2822 N.3   628  UNL628     -0.3437
   2510 H           8.9288   10.0039    0.3863 H     628  UNL628      0.1146
   2511 H           9.8422    9.7957   -0.9447 H     628  UNL628      0.1146
   2512 H           9.8586    8.6765    0.2368 H     628  UNL628      0.1146
   2513 N           9.2782    9.5963    2.6576 N.3   629  UNL629     -0.3437
   2514 H           8.8155    8.9353    2.0354 H     629  UNL629      0.1146
   2515 H           9.9390    9.0492    3.2075 H     629  UNL629      0.1146
   2516 H           9.8419   10.1982    2.0589 H     629  UNL629      0.1146
   2517 N           9.2912    9.5954    5.3128 N.3   630  UNL630     -0.3437
   2518 H           8.7765    9.0143    4.6527 H     630  UNL630      0.1146
   2519 H           9.9221    8.9668    5.8079 H     630  UNL630      0.1146
   2520 H           9.8848   10.2024    4.7493 H     630  UNL630      0.1146
   2521 N           9.2948    9.6198    7.9343 N.3   631  UNL631     -0.3437
   2522 H           8.7669    8.9654    7.3586 H     631  UNL631      0.1146
   2523 H           9.9234    9.0519    8.5007 H     631  UNL631      0.1146
   2524 H           9.8896   10.1419    7.2925 H     631  UNL631      0.1146
   2525 N           9.2840    9.5986   10.5844 N.3   632  UNL632     -0.3437
   2526 H           8.7963    8.9975    9.9217 H     632  UNL632      0.1146
   2527 H           9.9015    8.9870   11.1165 H     632  UNL632      0.1146
   2528 H           9.8927   10.1958   10.0267 H     632  UNL632      0.1146
   2529 N           9.2974    9.6102   13.2283 N.3   633  UNL633     -0.3437
   2530 H           8.7601    9.0376   12.5788 H     633  UNL633      0.1146
   2531 H           9.8875    8.9641   13.7505 H     633  UNL633      0.1146
   2532 H           9.9296   10.1670   12.6550 H     633  UNL633      0.1146
   2533 N           9.2662    9.5825   15.8595 N.3   634  UNL634     -0.3437
   2534 H           8.8517    9.0049   15.1295 H     634  UNL634      0.1146
   2535 H           9.8640    8.9617   16.4033 H     634  UNL634      0.1146
   2536 H           9.8928   10.2299   15.3836 H     634  UNL634      0.1146
   2537 N           9.2825    7.3491   18.1260 N.3   635  UNL635     -0.3437
   2538 H           8.8716    8.0665   18.7217 H     635  UNL635      0.1146
   2539 H          10.1322    7.7578   17.7394 H     635  UNL635      0.1146
   2540 H           9.5883    6.6055   18.7521 H     635  UNL635      0.1146
   2541 N           9.2406    9.6060   20.8790 N.3   636  UNL636     -0.3437
   2542 H           9.5834    8.9493   20.1793 H     636  UNL636      0.1146
   2543 H           9.0087    9.0473   21.6990 H     636  UNL636      0.1146
   2544 H          10.0419   10.1764   21.1453 H     636  UNL636      0.1146
   2545 N           9.6984    9.4587   23.8019 N.3   637  UNL637     -0.3437
   2546 H           8.9835   10.1553   24.0070 H     637  UNL637      0.1146
   2547 H           9.2264    8.5560   23.8266 H     637  UNL637      0.1146
   2548 H           9.9663    9.6090   22.8303 H     637  UNL637      0.1146
   2549 N           9.2732    9.5821   26.4314 N.3   638  UNL638     -0.3437
   2550 H           8.8287    9.0134   25.7122 H     638  UNL638      0.1146
   2551 H           9.8871    8.9531   26.9472 H     638  UNL638      0.1146
   2552 H           9.8856   10.2303   25.9383 H     638  UNL638      0.1146
   2553 N           9.3599    9.6715   29.0535 N.3   639  UNL639     -0.3437
   2554 H           8.6317    9.1048   28.6211 H     639  UNL639      0.1146
   2555 H           9.9122    9.0321   29.6232 H     639  UNL639      0.1146
   2556 H           9.9707    9.9705   28.2946 H     639  UNL639      0.1146
   2557 N           9.2445    9.5846   31.6714 N.3   640  UNL640     -0.3437
   2558 H           9.8519    9.1004   32.3310 H     640  UNL640      0.1146
   2559 H           9.8473   10.2160   31.1458 H     640  UNL640      0.1146
   2560 H           8.9310    8.8779   31.0075 H     640  UNL640      0.1146
   2561 N           9.2902    9.2125   35.2193 N.3   641  UNL641     -0.3437
   2562 H          10.2485    9.0273   35.5118 H     641  UNL641      0.1146
   2563 H           8.9904   10.0337   35.7429 H     641  UNL641      0.1146
   2564 H           9.3455    9.5055   34.2449 H     641  UNL641      0.1146
   2565 N           9.2450   12.3757    0.0071 N.3   642  UNL642     -0.3437
   2566 H           8.9424   11.6658   -0.6584 H     642  UNL642      0.1146
   2567 H           9.9557   11.9321    0.5873 H     642  UNL642      0.1146
   2568 H           9.7315   13.0845   -0.5400 H     642  UNL642      0.1146
   2569 N           9.2953   12.4104    2.6797 N.3   643  UNL643     -0.3437
   2570 H           8.7655   11.8650    2.0013 H     643  UNL643      0.1146
   2571 H           9.9204   11.7521    3.1426 H     643  UNL643      0.1146
   2572 H           9.8934   13.0306    2.1358 H     643  UNL643      0.1146
   2573 N           9.2858   12.3992    5.3199 N.3   644  UNL644     -0.3437
   2574 H           8.7950   11.8064    4.6521 H     644  UNL644      0.1146
   2575 H           9.9621   11.7964    5.7865 H     644  UNL644      0.1146
   2576 H           9.8317   13.0561    4.7642 H     644  UNL644      0.1146
   2577 N           9.2526   12.3996    7.9214 N.3   645  UNL645     -0.3437
   2578 H           8.9002   11.7206    7.2482 H     645  UNL645      0.1146
   2579 H           9.8927   11.8882    8.5273 H     645  UNL645      0.1146
   2580 H           9.8290   13.0498    7.3890 H     645  UNL645      0.1146
   2581 N           9.2833   12.4112   10.5898 N.3   646  UNL646     -0.3437
   2582 H           8.7989   11.8145    9.9208 H     646  UNL646      0.1146
   2583 H           9.9191   11.8010   11.1015 H     646  UNL646      0.1146
   2584 H           9.8733   13.0315   10.0372 H     646  UNL646      0.1146
   2585 N           9.2774   12.4064   13.2283 N.3   647  UNL647     -0.3437
   2586 H           8.8229   11.7371   12.6087 H     647  UNL647      0.1146
   2587 H           9.9731   11.8770   13.7518 H     647  UNL647      0.1146
   2588 H           9.8012   13.0377   12.6238 H     647  UNL647      0.1146
   2589 N           9.2663   12.3909   15.8685 N.3   648  UNL648     -0.3437
   2590 H           8.8583   11.7386   15.2004 H     648  UNL648      0.1146
   2591 H           9.9613   11.8595   16.3912 H     648  UNL648      0.1146
   2592 H           9.7888   13.0690   15.3158 H     648  UNL648      0.1146
   2593 N           9.2326   10.1601   18.4788 N.3   649  UNL649     -0.3437
   2594 H           9.7432    9.4330   17.9798 H     649  UNL649      0.1146
   2595 H           9.9088   10.6028   19.0994 H     649  UNL649      0.1146
   2596 H           8.9901   10.8622   17.7812 H     649  UNL649      0.1146
   2597 N           9.2853   12.0509   20.8854 N.3   650  UNL650     -0.3437
   2598 H           9.8280   12.4526   20.1223 H     650  UNL650      0.1146
   2599 H           9.9644   11.7240   21.5713 H     650  UNL650      0.1146
   2600 H           8.7969   12.8305   21.3235 H     650  UNL650      0.1146
   2601 N           9.2882   12.0909   23.4594 N.3   651  UNL651     -0.3437
   2602 H           8.7940   12.6416   24.1600 H     651  UNL651      0.1146
   2603 H           9.7932   12.7605   22.8807 H     651  UNL651      0.1146
   2604 H           9.9992   11.5650   23.9658 H     651  UNL651      0.1146
   2605 N           9.2556   12.3967   26.4138 N.3   652  UNL652     -0.3437
   2606 H           8.8913   11.8548   25.6315 H     652  UNL652      0.1146
   2607 H           9.8094   11.7479   26.9712 H     652  UNL652      0.1146
   2608 H           9.9183   13.0587   26.0126 H     652  UNL652      0.1146
   2609 N           9.2963   12.1178   28.7080 N.3   653  UNL653     -0.3437
   2610 H           8.7834   12.4663   29.5165 H     653  UNL653      0.1146
   2611 H           9.7441   12.9310   28.2876 H     653  UNL653      0.1146
   2612 H          10.0508   11.5430   29.0804 H     653  UNL653      0.1146
   2613 N           9.3106   12.4702   31.6806 N.3   654  UNL654     -0.3437
   2614 H           8.7291   11.8203   31.1535 H     654  UNL654      0.1146
   2615 H           9.8696   11.8984   32.3122 H     654  UNL654      0.1146
   2616 H           9.9653   12.8692   31.0094 H     654  UNL654      0.1146
   2617 N           9.5859   12.4446   34.9768 N.3   655  UNL655     -0.3437
   2618 H          10.0768   11.5543   35.0441 H     655  UNL655      0.1146
   2619 H           8.6120   12.2146   34.7842 H     655  UNL655      0.1146
   2620 H           9.5999   12.8446   35.9139 H     655  UNL655      0.1146
   2621 N           9.2279   14.9475    0.3863 N.3   656  UNL656     -0.3437
   2622 H           9.0036   15.7275    1.0024 H     656  UNL656      0.1146
   2623 H           9.8114   15.3336   -0.3546 H     656  UNL656      0.1146
   2624 H           9.8318   14.3285    0.9254 H     656  UNL656      0.1146
   2625 N           9.3435   14.9235    2.9165 N.3   657  UNL657     -0.3437
   2626 H           8.6614   15.3199    3.5615 H     657  UNL657      0.1146
   2627 H           9.8798   15.7114    2.5558 H     657  UNL657      0.1146
   2628 H           9.9899   14.3824    3.4889 H     657  UNL657      0.1146
   2629 N           9.2772   14.9138    5.6245 N.3   658  UNL658     -0.3437
   2630 H           8.8180   15.5625    6.2621 H     658  UNL658      0.1146
   2631 H           9.8507   15.4860    5.0064 H     658  UNL658      0.1146
   2632 H           9.9288   14.3749    6.1931 H     658  UNL658      0.1146
   2633 N           9.2958   14.9334    8.2260 N.3   659  UNL659     -0.3437
   2634 H           8.7641   15.4626    8.9156 H     659  UNL659      0.1146
   2635 H           9.8914   15.6100    7.7508 H     659  UNL659      0.1146
   2636 H           9.9233   14.3311    8.7570 H     659  UNL659      0.1146
   2637 N           9.6557   15.2477   10.8930 N.3   660  UNL660     -0.3437
   2638 H          10.1339   14.5978   11.5152 H     660  UNL660      0.1146
   2639 H           9.0354   14.6804   10.3170 H     660  UNL660      0.1146
   2640 H           9.0496   15.8113   11.4874 H     660  UNL660      0.1146
   2641 N           9.6484   15.2604   13.5389 N.3   661  UNL661     -0.3437
   2642 H          10.1473   14.5132   14.0197 H     661  UNL661      0.1146
   2643 H           8.9480   14.8019   12.9578 H     661  UNL661      0.1146
   2644 H           9.1309   15.7616   14.2595 H     661  UNL661      0.1146
   2645 N           9.2950   13.0266   18.1027 N.3   662  UNL662     -0.3437
   2646 H           8.7783   13.3977   18.8987 H     662  UNL662      0.1146
   2647 H          10.0186   13.7128   17.8929 H     662  UNL662      0.1146
   2648 H           9.7827   12.2000   18.4450 H     662  UNL662      0.1146
   2649 N           9.2619   14.9584   20.8059 N.3   663  UNL663     -0.3437
   2650 H           8.8697   15.5960   21.4973 H     663  UNL663      0.1146
   2651 H           9.9336   15.5051   20.2689 H     663  UNL663      0.1146
   2652 H           9.8094   14.2776   21.3304 H     663  UNL663      0.1146
   2653 N           9.6069   14.9469   23.3942 N.3   664  UNL664     -0.3437
   2654 H           8.6187   15.1079   23.2043 H     664  UNL664      0.1146
   2655 H          10.0057   15.8615   23.6012 H     664  UNL664      0.1146
   2656 H           9.6433   14.4208   24.2661 H     664  UNL664      0.1146
   2657 N           9.2978   15.2673   26.4144 N.3   665  UNL665     -0.3437
   2658 H           8.7588   14.6157   25.8459 H     665  UNL665      0.1146
   2659 H           9.9042   14.6944   26.9996 H     665  UNL665      0.1146
   2660 H           9.9138   15.7598   25.7692 H     665  UNL665      0.1146
   2661 N           9.2996   15.2775   29.0447 N.3   666  UNL666     -0.3437
   2662 H           8.7594   14.6608   28.4395 H     666  UNL666      0.1146
   2663 H           9.8301   14.6678   29.6653 H     666  UNL666      0.1146
   2664 H           9.9855   15.7312   28.4430 H     666  UNL666      0.1146
   2665 N           9.2760   15.2773   31.6530 N.3   667  UNL667     -0.3437
   2666 H           8.8255   14.5544   31.0936 H     667  UNL667      0.1146
   2667 H           9.8119   14.7865   32.3673 H     667  UNL667      0.1146
   2668 H           9.9613   15.7190   31.0418 H     667  UNL667      0.1146
   2669 N           9.3485   14.8401   34.9215 N.3   668  UNL668     -0.3437
   2670 H          10.2505   14.6651   35.3620 H     668  UNL668      0.1146
   2671 H           8.7636   15.2666   35.6387 H     668  UNL668      0.1146
   2672 H           9.5121   15.5654   34.2247 H     668  UNL668      0.1146
   2673 N           9.3768   18.1151    0.0345 N.3   669  UNL669     -0.3437
   2674 H           8.6318   17.7687   -0.5682 H     669  UNL669      0.1146
   2675 H           9.7486   17.2993    0.5188 H     669  UNL669      0.1146
   2676 H          10.1174   18.4332   -0.5890 H     669  UNL669      0.1146
   2677 N           9.3069   18.0904    2.6526 N.3   670  UNL670     -0.3437
   2678 H           8.7361   17.4424    2.1116 H     670  UNL670      0.1146
   2679 H           9.9294   17.5133    3.2163 H     670  UNL670      0.1146
   2680 H           9.9022   18.5701    1.9789 H     670  UNL670      0.1146
   2681 N           9.5143   18.0538    5.3814 N.3   671  UNL671     -0.3437
   2682 H           8.7395   18.4272    4.8349 H     671  UNL671      0.1146
   2683 H           9.2964   17.0716    5.5430 H     671  UNL671      0.1146
   2684 H          10.3244   18.0637    4.7634 H     671  UNL671      0.1146
   2685 N           9.2844   18.0767    7.9252 N.3   672  UNL672     -0.3437
   2686 H           8.7997   17.4811    7.2554 H     672  UNL672      0.1146
   2687 H           9.8247   17.4495    8.5194 H     672  UNL672      0.1146
   2688 H           9.9659   18.6090    7.3860 H     672  UNL672      0.1146
   2689 N           9.2728   18.0906   10.5316 N.3   673  UNL673     -0.3437
   2690 H           8.8354   17.3843    9.9416 H     673  UNL673      0.1146
   2691 H           9.8075   17.5793   11.2324 H     673  UNL673      0.1146
   2692 H           9.9588   18.5620    9.9438 H     673  UNL673      0.1146
   2693 N           9.2974   18.1000   13.1934 N.3   674  UNL674     -0.3437
   2694 H           8.7720   17.5009   12.5583 H     674  UNL674      0.1146
   2695 H           9.7842   17.4732   13.8326 H     674  UNL674      0.1146
   2696 H          10.0210   18.5422   12.6283 H     674  UNL674      0.1146
   2697 N           9.2652   17.7671   15.8589 N.3   675  UNL675     -0.3437
   2698 H           8.8556   18.3281   15.1134 H     675  UNL675      0.1146
   2699 H           9.9051   17.1182   15.4030 H     675  UNL675      0.1146
   2700 H           9.8488   18.4029   16.4007 H     675  UNL675      0.1146
   2701 N           9.2263   16.0434   18.2388 N.3   676  UNL676     -0.3437
   2702 H           9.7403   16.5814   18.9350 H     676  UNL676      0.1146
   2703 H           9.8896   15.8454   17.4909 H     676  UNL676      0.1146
   2704 H           9.0184   15.1461   18.6746 H     676  UNL676      0.1146
   2705 N           9.3263   18.0941   21.1517 N.3   677  UNL677     -0.3437
   2706 H           8.7443   17.7529   20.3881 H     677  UNL677      0.1146
   2707 H           9.6529   17.2659   21.6477 H     677  UNL677      0.1146
   2708 H          10.1511   18.5033   20.7151 H     677  UNL677      0.1146
   2709 N           9.5068   18.1212   23.8133 N.3   678  UNL678     -0.3437
   2710 H           8.8268   18.3580   23.0923 H     678  UNL678      0.1146
   2711 H           9.1752   17.2569   24.2392 H     678  UNL678      0.1146
   2712 H          10.3658   17.8801   23.3210 H     678  UNL678      0.1146
   2713 N           9.3422   18.1190   26.4160 N.3   679  UNL679     -0.3437
   2714 H           8.7122   17.7184   25.7225 H     679  UNL679      0.1146
   2715 H           9.6598   17.3395   26.9905 H     679  UNL679      0.1146
   2716 H          10.1605   18.4394   25.9002 H     679  UNL679      0.1146
   2717 N           9.3519   17.6730   29.0408 N.3   680  UNL680     -0.3437
   2718 H           8.7091   18.0852   28.3661 H     680  UNL680      0.1146
   2719 H          10.1913   17.4297   28.5167 H     680  UNL680      0.1146
   2720 H           9.6223   18.4284   29.6689 H     680  UNL680      0.1146
   2721 N           9.4880   17.7175   31.3104 N.3   681  UNL681     -0.3437
   2722 H           8.7784   18.4359   31.1736 H     681  UNL681      0.1146
   2723 H          10.3598   18.2142   31.4889 H     681  UNL681      0.1146
   2724 H           9.2484   17.2486   32.1828 H     681  UNL681      0.1146
   2725 N           9.1943   17.7943   35.1710 N.3   682  UNL682     -0.3437
   2726 H           9.2416   18.7007   35.6344 H     682  UNL682      0.1146
   2727 H           9.5937   17.9318   34.2436 H     682  UNL682      0.1146
   2728 H           9.8450   17.1894   35.6701 H     682  UNL682      0.1146
   2729 N           7.3048   20.5541   -0.3290 N.3   683  UNL683     -0.3437
   2730 H           6.7445   21.2010    0.2241 H     683  UNL683      0.1146
   2731 H           7.9750   21.1279   -0.8387 H     683  UNL683      0.1146
   2732 H           7.8503   20.0123    0.3398 H     683  UNL683      0.1146
   2733 N           9.3201   20.5675    2.2877 N.3   684  UNL684     -0.3437
   2734 H           8.7063   21.0934    2.9083 H     684  UNL684      0.1146
   2735 H           9.9513   21.2508    1.8717 H     684  UNL684      0.1146
   2736 H           9.8968   19.9836    2.8917 H     684  UNL684      0.1146
   2737 N           9.2478   20.5858    4.9908 N.3   685  UNL685     -0.3437
   2738 H           8.9193   21.3105    5.6275 H     685  UNL685      0.1146
   2739 H           9.8934   21.0461    4.3506 H     685  UNL685      0.1146
   2740 H           9.8142   19.9530    5.5539 H     685  UNL685      0.1146
   2741 N           9.2762   20.5419    7.6403 N.3   686  UNL686     -0.3437
   2742 H           8.8197   21.2733    8.1834 H     686  UNL686      0.1146
   2743 H           9.8810   21.0219    6.9753 H     686  UNL686      0.1146
   2744 H           9.8977   20.0583    8.2869 H     686  UNL686      0.1146
   2745 N           9.2731   20.5519   10.2724 N.3   687  UNL687     -0.3437
   2746 H           8.8291   21.2557   10.8605 H     687  UNL687      0.1146
   2747 H           9.8785   21.0628    9.6314 H     687  UNL687      0.1146
   2748 H           9.8939   20.0250   10.8851 H     687  UNL687      0.1146
   2749 N           9.2557   20.5564   12.9350 N.3   688  UNL688     -0.3437
   2750 H           8.8881   21.3220   13.4981 H     688  UNL688      0.1146
   2751 H           9.8542   20.9871   12.2317 H     688  UNL688      0.1146
   2752 H           9.8766   20.0299   13.5478 H     688  UNL688      0.1146
   2753 N           9.2731   20.5767   15.5283 N.3   689  UNL689     -0.3437
   2754 H           8.8292   21.1851   16.2147 H     689  UNL689      0.1146
   2755 H           9.8856   21.1756   14.9765 H     689  UNL689      0.1146
   2756 H           9.8867   19.9580   16.0565 H     689  UNL689      0.1146
   2757 N           9.2245   18.5677   18.3931 N.3   690  UNL690     -0.3437
   2758 H           9.0727   19.2880   17.6885 H     690  UNL690      0.1146
   2759 H           9.9880   17.9900   18.0442 H     690  UNL690      0.1146
   2760 H           9.5894   19.0498   19.2134 H     690  UNL690      0.1146
   2761 N           9.2790   20.5560   20.8231 N.3   691  UNL691     -0.3437
   2762 H           8.8113   21.2458   21.4094 H     691  UNL691      0.1146
   2763 H           9.9121   21.0814   20.2218 H     691  UNL691      0.1146
   2764 H           9.8722   20.0121   21.4482 H     691  UNL691      0.1146
   2765 N           9.2881   20.5618   23.4475 N.3   692  UNL692     -0.3437
   2766 H           8.7847   21.1824   24.0798 H     692  UNL692      0.1146
   2767 H           9.9078   21.1591   22.9020 H     692  UNL692      0.1146
   2768 H           9.8939   19.9921   24.0364 H     692  UNL692      0.1146
   2769 N           9.2849   20.5451   26.1102 N.3   693  UNL693     -0.3437
   2770 H           8.7939   21.2251   26.6888 H     693  UNL693      0.1146
   2771 H           9.8880   21.0858   25.4918 H     693  UNL693      0.1146
   2772 H           9.9079   20.0394   26.7383 H     693  UNL693      0.1146
   2773 N           9.2952   20.5316   28.7555 N.3   694  UNL694     -0.3437
   2774 H           8.7678   21.1869   29.3307 H     694  UNL694      0.1146
   2775 H           9.8557   21.1011   28.1231 H     694  UNL694      0.1146
   2776 H           9.9560   20.0758   29.3831 H     694  UNL694      0.1146
   2777 N           9.2734   20.5734   31.3758 N.3   695  UNL695     -0.3437
   2778 H           8.8282   21.1909   32.0531 H     695  UNL695      0.1146
   2779 H           9.8833   21.1658   30.8140 H     695  UNL695      0.1146
   2780 H           9.8898   19.9652   31.9129 H     695  UNL695      0.1146
   2781 N           9.2060   20.8117   34.2830 N.3   696  UNL696     -0.3437
   2782 H           9.1518   19.9396   33.7586 H     696  UNL696      0.1146
   2783 H           9.8873   20.6521   35.0237 H     696  UNL696      0.1146
   2784 H           9.6295   21.4920   33.6536 H     696  UNL696      0.1146
   2785 N           9.2858   23.3800   -0.3157 N.3   697  UNL697     -0.3437
   2786 H           8.7922   24.0412    0.2822 H     697  UNL697      0.1146
   2787 H           9.9308   23.9353   -0.8761 H     697  UNL697      0.1146
   2788 H           9.8658   22.8180    0.3057 H     697  UNL697      0.1146
   2789 N           9.2855   23.3993    2.3081 N.3   698  UNL698     -0.3437
   2790 H           8.7929   23.9916    2.9751 H     698  UNL698      0.1146
   2791 H           9.9315   24.0118    1.8121 H     698  UNL698      0.1146
   2792 H           9.8646   22.7717    2.8641 H     698  UNL698      0.1146
   2793 N           9.2718   23.4071    4.9575 N.3   699  UNL699     -0.3437
   2794 H           8.8340   24.0121    5.6508 H     699  UNL699      0.1146
   2795 H           9.9142   23.9996    4.4334 H     699  UNL699      0.1146
   2796 H           9.8546   22.7556    5.4812 H     699  UNL699      0.1146
   2797 N           9.2733   23.3830    7.6185 N.3   700  UNL700     -0.3437
   2798 H           8.8301   24.0899    8.2034 H     700  UNL700      0.1146
   2799 H           9.9274   23.8842    7.0190 H     700  UNL700      0.1146
   2800 H           9.8438   22.8173    8.2452 H     700  UNL700      0.1146
   2801 N           9.2496   23.4061   10.2693 N.3   701  UNL701     -0.3437
   2802 H           8.9133   24.1320   10.9004 H     701  UNL701      0.1146
   2803 H           9.9058   23.8642    9.6384 H     701  UNL701      0.1146
   2804 H           9.8059   22.7722   10.8412 H     701  UNL701      0.1146
   2805 N           9.2797   23.3921   12.8837 N.3   702  UNL702     -0.3437
   2806 H           8.8090   24.0077   13.5454 H     702  UNL702      0.1146
   2807 H           9.9048   23.9873   12.3421 H     702  UNL702      0.1146
   2808 H           9.8811   22.7874   13.4415 H     702  UNL702      0.1146
   2809 N           9.2322   23.4392   15.5506 N.3   703  UNL703     -0.3437
   2810 H           8.9836   24.0002   16.3641 H     703  UNL703      0.1146
   2811 H           9.8162   24.0355   14.9660 H     703  UNL703      0.1146
   2812 H           9.8426   22.6996   15.8953 H     703  UNL703      0.1146
   2813 N           9.2432   21.6679   18.1895 N.3   704  UNL704     -0.3437
   2814 H           9.0138   20.7464   18.5591 H     704  UNL704      0.1146
   2815 H           9.5511   22.2218   18.9875 H     704  UNL704      0.1146
   2816 H          10.0665   21.5384   17.6032 H     704  UNL704      0.1146
   2817 N           9.2826   23.3326   20.8847 N.3   705  UNL705     -0.3437
   2818 H           8.8265   24.0388   21.4606 H     705  UNL705      0.1146
   2819 H           9.7149   23.8368   20.1118 H     705  UNL705      0.1146
   2820 H          10.0506   22.9662   21.4454 H     705  UNL705      0.1146
   2821 N           9.3143   23.7018   23.8128 N.3   706  UNL706     -0.3437
   2822 H           9.9601   23.0484   24.2536 H     706  UNL706      0.1146
   2823 H           9.8802   24.2829   23.1958 H     706  UNL706      0.1146
   2824 H           8.7200   23.1414   23.2036 H     706  UNL706      0.1146
   2825 N           9.2736   23.4446   26.0584 N.3   707  UNL707     -0.3437
   2826 H           8.8298   23.9219   26.8417 H     707  UNL707      0.1146
   2827 H           9.9365   24.1100   25.6631 H     707  UNL707      0.1146
   2828 H           9.8346   22.6979   26.4659 H     707  UNL707      0.1146
   2829 N           9.2737   23.3937   28.7341 N.3   708  UNL708     -0.3437
   2830 H           8.8283   24.0483   29.3756 H     708  UNL708      0.1146
   2831 H           9.9192   23.9467   28.1719 H     708  UNL708      0.1146
   2832 H           9.8535   22.7858   29.3108 H     708  UNL708      0.1146
   2833 N           9.2471   23.4255   31.3829 N.3   709  UNL709     -0.3437
   2834 H           8.9204   24.0090   32.1518 H     709  UNL709      0.1146
   2835 H           9.8543   24.0184   30.8188 H     709  UNL709      0.1146
   2836 H           9.8528   22.7215   31.8022 H     709  UNL709      0.1146
   2837 N           9.3641   23.2937   35.2980 N.3   710  UNL710     -0.3437
   2838 H          10.3092   23.5119   35.6101 H     710  UNL710      0.1146
   2839 H           8.7965   24.1074   35.5306 H     710  UNL710      0.1146
   2840 H           9.4048   23.2614   34.2803 H     710  UNL710      0.1146
   2841 N           9.2442   26.2522   -0.3080 N.3   711  UNL711     -0.3437
   2842 H           9.7295   25.5444    0.2413 H     711  UNL711      0.1146
   2843 H           8.9459   26.9664    0.3548 H     711  UNL711      0.1146
   2844 H           9.9550   26.6906   -0.8921 H     711  UNL711      0.1146
   2845 N           9.3000   26.4946    2.6941 N.3   712  UNL712     -0.3437
   2846 H           8.7650   25.8955    2.0670 H     712  UNL712      0.1146
   2847 H          10.0222   25.9017    3.1007 H     712  UNL712      0.1146
   2848 H           9.7873   27.1617    2.0975 H     712  UNL712      0.1146
   2849 N           9.2770   26.4734    5.3270 N.3   713  UNL713     -0.3437
   2850 H           8.8261   25.9033    4.6127 H     713  UNL713      0.1146
   2851 H           9.9834   25.8781    5.7570 H     713  UNL713      0.1146
   2852 H           9.7881   27.1988    4.8260 H     713  UNL713      0.1146
   2853 N           9.2511   26.2646    7.9456 N.3   714  UNL714     -0.3437
   2854 H           9.7822   25.5106    7.5124 H     714  UNL714      0.1146
   2855 H           9.9306   26.8340    8.4482 H     714  UNL714      0.1146
   2856 H           8.9107   26.8444    7.1798 H     714  UNL714      0.1146
   2857 N           9.2469   26.4158   10.2240 N.3   715  UNL715     -0.3437
   2858 H           8.9223   26.1014   11.1373 H     715  UNL715      0.1146
   2859 H           9.8194   27.2406   10.3980 H     715  UNL715      0.1146
   2860 H           9.8860   25.6958    9.8900 H     715  UNL715      0.1146
   2861 N           9.2562   26.5411   13.1565 N.3   716  UNL716     -0.3437
   2862 H           8.8895   25.6741   12.7664 H     716  UNL716      0.1146
   2863 H           9.9237   26.2654   13.8754 H     716  UNL716      0.1146
   2864 H           9.8051   26.9729   12.4144 H     716  UNL716      0.1146
   2865 N           9.2859   26.4575   15.9064 N.3   717  UNL717     -0.3437
   2866 H           8.7919   26.0506   15.1135 H     717  UNL717      0.1146
   2867 H           9.9331   25.7408   16.2320 H     717  UNL717      0.1146
   2868 H           9.8637   27.2047   15.5239 H     717  UNL717      0.1146
   2869 N           9.2944   26.3687   18.0961 N.3   718  UNL718     -0.3437
   2870 H           8.7787   26.1896   18.9565 H     718  UNL718      0.1146
   2871 H           9.7888   27.2476   18.2427 H     718  UNL718      0.1146
   2872 H          10.0127   25.6478   18.0440 H     718  UNL718      0.1146
   2873 N           9.2763   26.2119   20.8101 N.3   719  UNL719     -0.3437
   2874 H           8.8194   26.8389   21.4707 H     719  UNL719      0.1146
   2875 H           9.9004   26.7954   20.2547 H     719  UNL719      0.1146
   2876 H           9.8786   25.6074   21.3671 H     719  UNL719      0.1146
   2877 N           9.2749   26.1932   23.4720 N.3   720  UNL720     -0.3437
   2878 H           8.8238   26.9109   24.0373 H     720  UNL720      0.1146
   2879 H           9.9098   26.6865   22.8459 H     720  UNL720      0.1146
   2880 H           9.8661   25.6629   24.1106 H     720  UNL720      0.1146
   2881 N           9.2795   26.2056   26.0939 N.3   721  UNL721     -0.3437
   2882 H           8.8097   26.8457   26.7326 H     721  UNL721      0.1146
   2883 H           9.9038   26.7800   25.5294 H     721  UNL721      0.1146
   2884 H           9.8816   25.6223   26.6732 H     721  UNL721      0.1146
   2885 N           9.2646   26.2188   28.7406 N.3   722  UNL722     -0.3437
   2886 H           8.8573   26.8751   29.4053 H     722  UNL722      0.1146
   2887 H           9.8976   26.7652   28.1583 H     722  UNL722      0.1146
   2888 H           9.8552   25.5945   29.2882 H     722  UNL722      0.1146
   2889 N           9.2478   26.2495   31.3788 N.3   723  UNL723     -0.3437
   2890 H           8.9175   26.8000   32.1701 H     723  UNL723      0.1146
   2891 H           9.8489   26.8689   30.8371 H     723  UNL723      0.1146
   2892 H           9.8604   25.5352   31.7698 H     723  UNL723      0.1146
   2893 N           9.4197   26.6316   35.0655 N.3   724  UNL724     -0.3437
   2894 H           8.7813   26.4051   35.8267 H     724  UNL724      0.1146
   2895 H          10.3591   26.5313   35.4475 H     724  UNL724      0.1146
   2896 H           9.3145   25.8856   34.3793 H     724  UNL724      0.1146
   2897 N           9.2714   30.0486   -0.3252 N.3   725  UNL725     -0.3437
   2898 H           8.8401   30.7032    0.3257 H     725  UNL725      0.1146
   2899 H           9.9590   30.5867   -0.8506 H     725  UNL725      0.1146
   2900 H           9.8040   29.3942    0.2462 H     725  UNL725      0.1146
   2901 N           9.3288   30.0515    2.2652 N.3   726  UNL726     -0.3437
   2902 H           8.6877   30.4263    2.9629 H     726  UNL726      0.1146
   2903 H           9.9066   30.8353    1.9648 H     726  UNL726      0.1146
   2904 H           9.9514   29.4196    2.7666 H     726  UNL726      0.1146
   2905 N           9.2219   30.0990    4.9915 N.3   727  UNL727     -0.3437
   2906 H           9.0342   30.6545    5.8249 H     727  UNL727      0.1146
   2907 H           9.8302   30.6686    4.4052 H     727  UNL727      0.1146
   2908 H           9.7883   29.3105    5.3012 H     727  UNL727      0.1146
   2909 N           9.2723   29.1044    7.5651 N.3   728  UNL728     -0.3437
   2910 H           8.8338   29.3615    8.4482 H     728  UNL728      0.1146
   2911 H           9.8359   29.9066    7.2873 H     728  UNL728      0.1146
   2912 H           9.9326   28.3602    7.7855 H     728  UNL728      0.1146
   2913 N           9.2911   30.1021   10.1903 N.3   729  UNL729     -0.3437
   2914 H           8.7779   30.4587   10.9952 H     729  UNL729      0.1146
   2915 H           9.9435   30.8384    9.9245 H     729  UNL729      0.1146
   2916 H           9.8621   29.3336   10.5392 H     729  UNL729      0.1146
   2917 N           9.2911   30.1021   12.8312 N.3   730  UNL730     -0.3437
   2918 H           8.7779   30.4587   13.6361 H     730  UNL730      0.1146
   2919 H           9.9435   30.8384   12.5653 H     730  UNL730      0.1146
   2920 H           9.8621   29.3336   13.1801 H     730  UNL730      0.1146
   2921 N           9.2978   30.0719   15.4800 N.3   731  UNL731     -0.3437
   2922 H           8.7590   30.4507   16.2575 H     731  UNL731      0.1146
   2923 H           9.8930   30.8321   15.1540 H     731  UNL731      0.1146
   2924 H           9.9249   29.3780   15.8845 H     731  UNL731      0.1146
   2925 N           9.1769   30.2061   18.2929 N.3   732  UNL732     -0.3437
   2926 H           9.4398   30.2655   19.2756 H     732  UNL732      0.1146
   2927 H           9.7022   30.9382   17.8169 H     732  UNL732      0.1146
   2928 H           9.5557   29.3230   17.9537 H     732  UNL732      0.1146
   2929 N           7.7024   29.1448   21.1524 N.3   733  UNL733     -0.3437
   2930 H           7.5454   30.1229   20.9133 H     733  UNL733      0.1146
   2931 H           6.8337   28.8149   21.5706 H     733  UNL733      0.1146
   2932 H           7.7931   28.6501   20.2662 H     733  UNL733      0.1146
   2933 N           9.2944   29.1463   23.3805 N.3   734  UNL734     -0.3437
   2934 H           8.8467   28.8593   24.2497 H     734  UNL734      0.1146
   2935 H           9.5745   30.1167   23.5160 H     734  UNL734      0.1146
   2936 H          10.1589   28.6104   23.3195 H     734  UNL734      0.1146
   2937 N           9.2996   30.1021   26.0288 N.3   735  UNL735     -0.3437
   2938 H           8.7565   30.4587   26.8138 H     735  UNL735      0.1146
   2939 H           9.9615   30.8384   25.7877 H     735  UNL735      0.1146
   2940 H           9.8570   29.3336   26.3989 H     735  UNL735      0.1146
   2941 N           9.2908   30.1018   28.6765 N.3   736  UNL736     -0.3437
   2942 H           8.7791   30.4658   29.4790 H     736  UNL736      0.1146
   2943 H           9.9474   30.8330   28.4069 H     736  UNL736      0.1146
   2944 H           9.8572   29.3321   29.0300 H     736  UNL736      0.1146
   2945 N           9.1972   30.1646   31.4235 N.3   737  UNL737     -0.3437
   2946 H           9.1912   30.4594   32.3989 H     737  UNL737      0.1146
   2947 H           9.7897   30.8321   30.9319 H     737  UNL737      0.1146
   2948 H           9.6965   29.2766   31.4015 H     737  UNL737      0.1146
   2949 N           9.1736   29.1800   34.1622 N.3   738  UNL738     -0.3437
   2950 H           9.5198   28.8077   35.0453 H     738  UNL738      0.1146
   2951 H           9.5634   30.1180   34.0808 H     738  UNL738      0.1146
   2952 H           9.6178   28.6269   33.4307 H     738  UNL738      0.1146
   2953 N          11.7924    0.8534   -0.3144 N.3   739  UNL739     -0.3437
   2954 H          11.4028    1.4873    0.3818 H     739  UNL739      0.1146
   2955 H          12.4374    1.4111   -0.8724 H     739  UNL739      0.1146
   2956 H          12.3688    0.1898    0.2012 H     739  UNL739      0.1146
   2957 N          11.7851    1.0920    2.6621 N.3   740  UNL740     -0.3437
   2958 H          11.4287    0.5543    1.8733 H     740  UNL740      0.1146
   2959 H          12.4189    0.4703    3.1623 H     740  UNL740      0.1146
   2960 H          12.3687    1.8251    2.2617 H     740  UNL740      0.1146
   2961 N          11.8043    1.1089    5.3142 N.3   741  UNL741     -0.3437
   2962 H          11.3682    0.4993    4.6239 H     741  UNL741      0.1146
   2963 H          12.4926    0.5357    5.8002 H     741  UNL741      0.1146
   2964 H          12.3364    1.7977    4.7844 H     741  UNL741      0.1146
   2965 N          11.8585    1.1612    7.9622 N.3   742  UNL742     -0.3437
   2966 H          11.2470    0.7951    7.2339 H     742  UNL742      0.1146
   2967 H          12.2775    0.3484    8.4119 H     742  UNL742      0.1146
   2968 H          12.6184    1.6370    7.4779 H     742  UNL742      0.1146
   2969 N          11.7745    1.1091   10.5575 N.3   743  UNL743     -0.3437
   2970 H          11.4701    0.5187    9.7848 H     743  UNL743      0.1146
   2971 H          12.3495    0.5162   11.1544 H     743  UNL743      0.1146
   2972 H          12.4072    1.7976   10.1526 H     743  UNL743      0.1146
   2973 N          11.8334    0.8954   13.2799 N.3   744  UNL744     -0.3437
   2974 H          11.2943    1.0425   12.4278 H     744  UNL744      0.1146
   2975 H          12.5638    0.2271   13.0384 H     744  UNL744      0.1146
   2976 H          12.3098    1.7767   13.4665 H     744  UNL744      0.1146
   2977 N          12.1593    0.8563   15.4808 N.3   745  UNL745     -0.3437
   2978 H          11.6485    1.6742   15.1512 H     745  UNL745      0.1146
   2979 H          12.7323    1.1780   16.2596 H     745  UNL745      0.1146
   2980 H          11.4613    0.2331   15.8844 H     745  UNL745      0.1146
   2981 N          11.9278    0.8214   18.0998 N.3   746  UNL746     -0.3437
   2982 H          11.1840    0.8644   18.7949 H     746  UNL746      0.1146
   2983 H          12.1405    1.7877   17.8558 H     746  UNL746      0.1146
   2984 H          12.7491    0.4681   18.5887 H     746  UNL746      0.1146
   2985 N          11.7974    0.8640   20.7983 N.3   747  UNL747     -0.3437
   2986 H          11.3961    1.5254   21.4615 H     747  UNL747      0.1146
   2987 H          12.5115    1.3789   20.2853 H     747  UNL747      0.1146
   2988 H          12.2963    0.1734   21.3574 H     747  UNL747      0.1146
   2989 N          11.7968    1.0907   23.8031 N.3   748  UNL748     -0.3437
   2990 H          11.3867    0.6282   22.9931 H     748  UNL748      0.1146
   2991 H          12.4120    0.4040   24.2372 H     748  UNL748      0.1146
   2992 H          12.4059    1.8187   23.4324 H     748  UNL748      0.1146
   2993 N          11.7555    0.9305   26.1011 N.3   749  UNL749     -0.3437
   2994 H          11.5651    1.4237   26.9723 H     749  UNL749      0.1146
   2995 H          12.4259    1.5059   25.5934 H     749  UNL749      0.1146
   2996 H          12.2550    0.0816   26.3623 H     749  UNL749      0.1146
   2997 N          11.7856    1.1099   29.0587 N.3   750  UNL750     -0.3437
   2998 H          11.4270    0.4879   28.3355 H     750  UNL750      0.1146
   2999 H          12.4233    0.5483   29.6211 H     750  UNL750      0.1146
   3000 H          12.3655    1.7956   28.5771 H     750  UNL750      0.1146
   3001 N           9.7115    0.9950   31.4771 N.3   751  UNL751     -0.3437
   3002 H          10.2578    1.6402   30.9083 H     751  UNL751      0.1146
   3003 H          10.1171    0.0728   31.3238 H     751  UNL751      0.1146
   3004 H           9.9150    1.2337   32.4466 H     751  UNL751      0.1146
   3005 N          11.8427   -0.7819   34.2714 N.3   752  UNL752     -0.3437
   3006 H          11.2792   -1.4668   33.7697 H     752  UNL752      0.1146
   3007 H          12.2817   -1.2879   35.0394 H     752  UNL752      0.1146
   3008 H          12.5978   -0.5217   33.6386 H     752  UNL752      0.1146
   3009 N          11.7888    3.6669   -0.3043 N.3   753  UNL753     -0.3437
   3010 H          11.4146    4.3107    0.3914 H     753  UNL753      0.1146
   3011 H          12.4064    4.2208   -0.8960 H     753  UNL753      0.1146
   3012 H          12.3916    3.0223    0.2051 H     753  UNL753      0.1146
   3013 N          11.8361    4.0000    2.6396 N.3   754  UNL754     -0.3437
   3014 H          11.2739    3.3318    2.1145 H     754  UNL754      0.1146
   3015 H          12.4391    3.4451    3.2452 H     754  UNL754      0.1146
   3016 H          12.4523    4.4438    1.9601 H     754  UNL754      0.1146
   3017 N          11.8116    3.9111    5.3320 N.3   755  UNL755     -0.3437
   3018 H          11.3455    3.3897    4.5909 H     755  UNL755      0.1146
   3019 H          12.4998    3.2753    5.7327 H     755  UNL755      0.1146
   3020 H          12.3444    4.6447    4.8670 H     755  UNL755      0.1146
   3021 N          11.8362    3.6556    7.5764 N.3   756  UNL756     -0.3437
   3022 H          11.2736    4.1851    8.2407 H     756  UNL756      0.1146
   3023 H          12.4574    4.3311    7.1333 H     756  UNL756      0.1146
   3024 H          12.4342    3.0489    8.1356 H     756  UNL756      0.1146
   3025 N          11.7859    4.0062   10.3806 N.3   757  UNL757     -0.3437
   3026 H          11.4282    3.0830   10.6218 H     757  UNL757      0.1146
   3027 H          12.4499    4.2505   11.1140 H     757  UNL757      0.1146
   3028 H          12.3374    3.8811    9.5329 H     757  UNL757      0.1146
   3029 N          11.8114    3.9241   12.8594 N.3   758  UNL758     -0.3437
   3030 H          11.3407    3.4649   13.6379 H     758  UNL758      0.1146
   3031 H          12.4353    4.6139   13.2759 H     758  UNL758      0.1146
   3032 H          12.4140    3.2178   12.4395 H     758  UNL758      0.1146
   3033 N          11.7609    3.7047   15.5528 N.3   759  UNL759     -0.3437
   3034 H          12.1446    3.0267   16.2097 H     759  UNL759      0.1146
   3035 H          11.5740    4.5468   16.0953 H     759  UNL759      0.1146
   3036 H          12.5219    3.9426   14.9182 H     759  UNL759      0.1146
   3037 N          12.1572    3.7955   18.0845 N.3   760  UNL760     -0.3437
   3038 H          11.1624    3.6352   17.9326 H     760  UNL760      0.1146
   3039 H          12.2276    4.6945   18.5591 H     760  UNL760      0.1146
   3040 H          12.4541    3.0957   18.7631 H     760  UNL760      0.1146
   3041 N          12.2104    3.6389   20.8507 N.3   761  UNL761     -0.3437
   3042 H          11.6058    4.0901   20.1657 H     761  UNL761      0.1146
   3043 H          12.5915    4.3886   21.4261 H     761  UNL761      0.1146
   3044 H          11.5937    3.1032   21.4599 H     761  UNL761      0.1146
   3045 N          11.7981    3.9430   23.4507 N.3   762  UNL762     -0.3437
   3046 H          11.3980    3.2038   24.0266 H     762  UNL762      0.1146
   3047 H          12.2762    4.5725   24.0938 H     762  UNL762      0.1146
   3048 H          12.5291    3.5014   22.8947 H     762  UNL762      0.1146
   3049 N          11.8192    3.9485   26.4418 N.3   763  UNL763     -0.3437
   3050 H          11.3188    3.4379   25.7157 H     763  UNL763      0.1146
   3051 H          12.4028    3.2614   26.9169 H     763  UNL763      0.1146
   3052 H          12.4606    4.5729   25.9548 H     763  UNL763      0.1146
   3053 N          11.8049    3.9709   29.0454 N.3   764  UNL764     -0.3437
   3054 H          11.3606    3.2859   28.4357 H     764  UNL764      0.1146
   3055 H          12.4176    3.4410   29.6636 H     764  UNL764      0.1146
   3056 H          12.4184    4.5229   28.4477 H     764  UNL764      0.1146
   3057 N          11.8086    3.9765   31.6848 N.3   765  UNL765     -0.3437
   3058 H          11.3493    3.2997   31.0770 H     765  UNL765      0.1146
   3059 H          12.4060    3.4345   32.3076 H     765  UNL765      0.1146
   3060 H          12.4375    4.5100   31.0864 H     765  UNL765      0.1146
   3061 N          11.9553    1.5472   34.0427 N.3   766  UNL766     -0.3437
   3062 H          11.1475    2.1664   33.9927 H     766  UNL766      0.1146
   3063 H          12.7358    2.0714   33.6496 H     766  UNL766      0.1146
   3064 H          12.1628    1.4357   35.0341 H     766  UNL766      0.1146
   3065 N          11.8288    6.5380   -0.3754 N.3   767  UNL767     -0.3437
   3066 H          11.3106    7.0369    0.3463 H     767  UNL767      0.1146
   3067 H          12.5752    7.1659   -0.6703 H     767  UNL767      0.1146
   3068 H          12.2869    5.7590    0.0955 H     767  UNL767      0.1146
   3069 N          12.2233    6.7421    2.3350 N.3   768  UNL768     -0.3437
   3070 H          12.5334    6.2994    3.1989 H     768  UNL768      0.1146
   3071 H          11.7180    6.0244    1.8173 H     768  UNL768      0.1146
   3072 H          11.5268    7.4340    2.6083 H     768  UNL768      0.1146
   3073 N          11.8123    6.7604    5.3142 N.3   769  UNL769     -0.3437
   3074 H          11.3404    6.1624    4.6374 H     769  UNL769      0.1146
   3075 H          12.4774    6.1619    5.8021 H     769  UNL769      0.1146
   3076 H          12.3712    7.4151    4.7690 H     769  UNL769      0.1146
   3077 N          11.8254    6.7360    7.9823 N.3   770  UNL770     -0.3437
   3078 H          11.3014    6.3044    7.2224 H     770  UNL770      0.1146
   3079 H          12.4567    6.0166    8.3322 H     770  UNL770      0.1146
   3080 H          12.4179    7.4428    7.5490 H     770  UNL770      0.1146
   3081 N          11.8197    6.4884   10.2224 N.3   771  UNL771     -0.3437
   3082 H          11.3262    6.8809   11.0229 H     771  UNL771      0.1146
   3083 H          12.3260    7.2637    9.7969 H     771  UNL771      0.1146
   3084 H          12.5295    5.8669   10.6072 H     771  UNL771      0.1146
   3085 N          11.7993    6.7837   13.2006 N.3   772  UNL772     -0.3437
   3086 H          11.3812    6.0496   12.6308 H     772  UNL772      0.1146
   3087 H          12.4626    6.3170   13.8175 H     772  UNL772      0.1146
   3088 H          12.3583    7.3496   12.5637 H     772  UNL772      0.1146
   3089 N          11.7957    6.7679   15.8524 N.3   773  UNL773     -0.3437
   3090 H          11.3913    6.1036   15.1940 H     773  UNL773      0.1146
   3091 H          12.4398    6.2319   16.4323 H     773  UNL773      0.1146
   3092 H          12.3745    7.3965   15.2973 H     773  UNL773      0.1146
   3093 N          11.8088    6.7872   18.4909 N.3   774  UNL774     -0.3437
   3094 H          11.3489    6.1081   17.8862 H     774  UNL774      0.1146
   3095 H          12.4449    6.2526   19.0808 H     774  UNL774      0.1146
   3096 H          12.3988    7.3519   17.8814 H     774  UNL774      0.1146
   3097 N          11.7799    6.6864   21.1627 N.3   775  UNL775     -0.3437
   3098 H          11.5899    5.8692   20.5844 H     775  UNL775      0.1146
   3099 H          12.6595    6.4945   21.6399 H     775  UNL775      0.1146
   3100 H          11.9722    7.4498   20.5156 H     775  UNL775      0.1146
   3101 N          11.7915    6.7723   23.7650 N.3   776  UNL776     -0.3437
   3102 H          11.4116    6.0180   23.1948 H     776  UNL776      0.1146
   3103 H          12.4812    6.3406   24.3785 H     776  UNL776      0.1146
   3104 H          12.3171    7.3689   23.1276 H     776  UNL776      0.1146
   3105 N          11.7878    6.7756   26.3970 N.3   777  UNL777     -0.3437
   3106 H          11.4182    6.0944   25.7353 H     777  UNL777      0.1146
   3107 H          12.3845    6.2516   27.0356 H     777  UNL777      0.1146
   3108 H          12.4109    7.3782   25.8612 H     777  UNL777      0.1146
   3109 N          11.8334    6.7412   29.1126 N.3   778  UNL778     -0.3437
   3110 H          11.2808    6.3113   28.3721 H     778  UNL778      0.1146
   3111 H          12.4616    6.0143   29.4523 H     778  UNL778      0.1146
   3112 H          12.4256    7.4330   28.6555 H     778  UNL778      0.1146
   3113 N           9.8623    6.7845   31.7460 N.3   779  UNL779     -0.3437
   3114 H          10.4193    6.0268   32.1385 H     779  UNL779      0.1146
   3115 H          10.5030    7.3409   31.1817 H     779  UNL779      0.1146
   3116 H           9.2169    6.3476   31.0895 H     779  UNL779      0.1146
   3117 N          11.8347    4.8561   34.0990 N.3   780  UNL780     -0.3437
   3118 H          11.4054    3.9623   33.8641 H     780  UNL780      0.1146
   3119 H          12.0101    4.8284   35.1024 H     780  UNL780      0.1146
   3120 H          12.7512    4.8531   33.6536 H     780  UNL780      0.1146
   3121 N          11.8248    9.3039   -0.3426 N.3   781  UNL781     -0.3437
   3122 H          11.3045    9.8712    0.3251 H     781  UNL781      0.1146
   3123 H          12.4790    9.9374   -0.7998 H     781  UNL781      0.1146
   3124 H          12.3931    8.6665    0.2134 H     781  UNL781      0.1146
   3125 N          11.8192    9.6047    2.6601 N.3   782  UNL782     -0.3437
   3126 H          11.3191    9.0341    1.9799 H     782  UNL782      0.1146
   3127 H          12.3973    8.9598    3.1970 H     782  UNL782      0.1146
   3128 H          12.4658   10.1803    2.1225 H     782  UNL782      0.1146
   3129 N          11.8219    9.6035    5.3048 N.3   783  UNL783     -0.3437
   3130 H          11.3117    8.9745    4.6864 H     783  UNL783      0.1146
   3131 H          12.4672    9.0169    5.8320 H     783  UNL783      0.1146
   3132 H          12.4007   10.1841    4.6996 H     783  UNL783      0.1146
   3133 N          11.8086    9.6037    7.9307 N.3   784  UNL784     -0.3437
   3134 H          11.3498    8.9310    7.3181 H     784  UNL784      0.1146
   3135 H          12.4500    9.0640    8.5102 H     784  UNL784      0.1146
   3136 H          12.3930   10.1803    7.3270 H     784  UNL784      0.1146
   3137 N          11.8237    9.6022   10.5895 N.3   785  UNL785     -0.3437
   3138 H          11.3059    9.0023    9.9490 H     785  UNL785      0.1146
   3139 H          12.4519    8.9870   11.1047 H     785  UNL785      0.1146
   3140 H          12.4199   10.1875   10.0061 H     785  UNL785      0.1146
   3141 N          11.8181    9.6277   13.1971 N.3   786  UNL786     -0.3437
   3142 H          11.3213    8.9423   12.6297 H     786  UNL786      0.1146
   3143 H          12.4159    9.0922   13.8250 H     786  UNL786      0.1146
   3144 H          12.4461   10.1168   12.5608 H     786  UNL786      0.1146
   3145 N          11.8330    9.6163   15.8670 N.3   787  UNL787     -0.3437
   3146 H          11.2824    8.9788   15.2937 H     787  UNL787      0.1146
   3147 H          12.4779    9.0318   16.3969 H     787  UNL787      0.1146
   3148 H          12.4080   10.1520   15.2183 H     787  UNL787      0.1146
   3149 N          11.7954    9.5591   18.5145 N.3   788  UNL788     -0.3437
   3150 H          11.3967    8.9625   17.7909 H     788  UNL788      0.1146
   3151 H          12.4763    8.9843   19.0087 H     788  UNL788      0.1146
   3152 H          12.3331   10.2731   18.0251 H     788  UNL788      0.1146
   3153 N          11.8308    9.5760   21.1791 N.3   789  UNL789     -0.3437
   3154 H          11.2882    9.0675   20.4824 H     789  UNL789      0.1146
   3155 H          12.4764    8.8983   21.5819 H     789  UNL789      0.1146
   3156 H          12.4060   10.2372   20.6592 H     789  UNL789      0.1146
   3157 N          11.8010    9.6008   23.7690 N.3   790  UNL790     -0.3437
   3158 H          11.3744    8.8978   23.1673 H     790  UNL790      0.1146
   3159 H          12.4522    9.0980   24.3704 H     790  UNL790      0.1146
   3160 H          12.3739   10.1823   23.1591 H     790  UNL790      0.1146
   3161 N          11.8134    9.5970   26.4283 N.3   791  UNL791     -0.3437
   3162 H          11.3348    8.9840   25.7699 H     791  UNL791      0.1146
   3163 H          12.4400    8.9986   26.9647 H     791  UNL791      0.1146
   3164 H          12.4132   10.1993   25.8662 H     791  UNL791      0.1146
   3165 N          11.8422    9.6165   29.0794 N.3   792  UNL792     -0.3437
   3166 H          11.2649    8.9626   28.5526 H     792  UNL792      0.1146
   3167 H          12.5295    9.0492   29.5736 H     792  UNL792      0.1146
   3168 H          12.3649   10.1507   28.3868 H     792  UNL792      0.1146
   3169 N          11.7988    9.5838   31.7045 N.3   793  UNL793     -0.3437
   3170 H          12.4409    9.0182   32.2578 H     793  UNL793      0.1146
   3171 H          12.3806   10.2266   31.1691 H     793  UNL793      0.1146
   3172 H          11.3811    8.9503   31.0243 H     793  UNL793      0.1146
   3173 N          12.0427    7.1523   34.1742 N.3   794  UNL794     -0.3437
   3174 H          11.2383    7.4444   33.6212 H     794  UNL794      0.1146
   3175 H          12.8388    7.6730   33.8088 H     794  UNL794      0.1146
   3176 H          11.8815    7.5093   35.1149 H     794  UNL794      0.1146
   3177 N          11.8734   12.4711    0.0180 N.3   795  UNL795     -0.3437
   3178 H          11.2116   12.0101   -0.6048 H     795  UNL795      0.1146
   3179 H          12.3095   11.7291    0.5636 H     795  UNL795      0.1146
   3180 H          12.6069   12.8477   -0.5807 H     795  UNL795      0.1146
   3181 N          11.8334   12.4380    2.6613 N.3   796  UNL796     -0.3437
   3182 H          11.2843   11.8955    1.9960 H     796  UNL796      0.1146
   3183 H          12.3763   11.7611    3.1955 H     796  UNL796      0.1146
   3184 H          12.5075   12.9636    2.1066 H     796  UNL796      0.1146
   3185 N          11.8678   12.4368    5.3309 N.3   797  UNL797     -0.3437
   3186 H          11.2280   12.1065    4.6099 H     797  UNL797      0.1146
   3187 H          12.2826   11.6019    5.7423 H     797  UNL797      0.1146
   3188 H          12.6231   12.9128    4.8396 H     797  UNL797      0.1146
   3189 N          11.8309   12.4443    7.9338 N.3   798  UNL798     -0.3437
   3190 H          11.2992   11.9244    7.2372 H     798  UNL798      0.1146
   3191 H          12.3160   11.7461    8.4956 H     798  UNL798      0.1146
   3192 H          12.5553   12.9433    7.4193 H     798  UNL798      0.1146
   3193 N          11.8370   12.4200   10.6034 N.3   799  UNL799     -0.3437
   3194 H          11.2792   11.9894    9.8673 H     799  UNL799      0.1146
   3195 H          12.3484   11.6598   11.0495 H     799  UNL799      0.1146
   3196 H          12.5368   12.9889   10.1291 H     799  UNL799      0.1146
   3197 N          11.8287   12.1227   12.8587 N.3   800  UNL800     -0.3437
   3198 H          11.3316   12.8566   13.3613 H     800  UNL800      0.1146
   3199 H          12.6298   12.5752   12.4207 H     800  UNL800      0.1146
   3200 H          12.2113   11.5035   13.5719 H     800  UNL800      0.1146
   3201 N          11.8048   12.1058   15.5393 N.3   801  UNL801     -0.3437
   3202 H          11.3828   12.9115   15.9987 H     801  UNL801      0.1146
   3203 H          12.5584   12.4748   14.9611 H     801  UNL801      0.1146
   3204 H          12.2553   11.5660   16.2769 H     801  UNL801      0.1146
   3205 N          11.8432   12.4554   18.4968 N.3   802  UNL802     -0.3437
   3206 H          11.2686   11.9304   17.8391 H     802  UNL802      0.1146
   3207 H          12.3261   11.7607   19.0648 H     802  UNL802      0.1146
   3208 H          12.5635   12.9115   17.9385 H     802  UNL802      0.1146
   3209 N          11.8147   12.4513   21.1099 N.3   803  UNL803     -0.3437
   3210 H          11.3314   11.7427   20.5598 H     803  UNL803      0.1146
   3211 H          12.4055   11.9427   21.7662 H     803  UNL803      0.1146
   3212 H          12.4498   12.9215   20.4666 H     803  UNL803      0.1146
   3213 N          11.8300   12.4004   23.8162 N.3   804  UNL804     -0.3437
   3214 H          11.3071   12.0892   22.9989 H     804  UNL804      0.1146
   3215 H          12.2889   11.5703   24.1888 H     804  UNL804      0.1146
   3216 H          12.5754   12.9981   23.4619 H     804  UNL804      0.1146
   3217 N          11.8508   12.4502   26.0825 N.3   805  UNL805     -0.3437
   3218 H          12.1209   12.8745   26.9687 H     805  UNL805      0.1146
   3219 H          12.7141   12.1167   25.6561 H     805  UNL805      0.1146
   3220 H          11.3156   11.6167   26.3218 H     805  UNL805      0.1146
   3221 N          11.7655   12.4170   28.9928 N.3   806  UNL806     -0.3437
   3222 H          12.1418   11.7915   29.7037 H     806  UNL806      0.1146
   3223 H          12.5382   13.0183   28.7102 H     806  UNL806      0.1146
   3224 H          11.5559   11.8312   28.1858 H     806  UNL806      0.1146
   3225 N          11.8467   12.4757   31.6774 N.3   807  UNL807     -0.3437
   3226 H          11.2499   11.8144   31.1827 H     807  UNL807      0.1146
   3227 H          12.4145   11.9193   32.3148 H     807  UNL807      0.1146
   3228 H          12.4903   12.8487   30.9808 H     807  UNL807      0.1146
   3229 N          11.8013   10.0646   34.2682 N.3   808  UNL808     -0.3437
   3230 H          11.4339   10.7010   33.5622 H     808  UNL808      0.1146
   3231 H          12.6317    9.6394   33.8582 H     808  UNL808      0.1146
   3232 H          12.1345   10.6531   35.0305 H     808  UNL808      0.1146
   3233 N          11.8211   14.9572   -0.3487 N.3   809  UNL809     -0.3437
   3234 H          11.3221   15.3076    0.4678 H     809  UNL809      0.1146
   3235 H          12.3281   15.7540   -0.7313 H     809  UNL809      0.1146
   3236 H          12.5302   14.3183    0.0083 H     809  UNL809      0.1146
   3237 N          11.8449   15.2728    2.6562 N.3   810  UNL810     -0.3437
   3238 H          12.4967   14.7111    3.2020 H     810  UNL810      0.1146
   3239 H          12.4050   15.7428    1.9464 H     810  UNL810      0.1146
   3240 H          11.2548   14.6104    2.1548 H     810  UNL810      0.1146
   3241 N          12.1876   14.9389    5.3072 N.3   811  UNL811     -0.3437
   3242 H          11.4684   15.4419    5.8249 H     811  UNL811      0.1146
   3243 H          11.6920   14.3222    4.6649 H     811  UNL811      0.1146
   3244 H          12.6534   15.6341    4.7258 H     811  UNL811      0.1146
   3245 N          11.7835   15.2348    7.9045 N.3   812  UNL812     -0.3437
   3246 H          12.3574   14.7077    8.5611 H     812  UNL812      0.1146
   3247 H          12.4252   15.8381    7.3920 H     812  UNL812      0.1146
   3248 H          11.4353   14.5565    7.2284 H     812  UNL812      0.1146
   3249 N          11.8238   15.2345   10.5957 N.3   813  UNL813     -0.3437
   3250 H          11.3088   14.7492    9.8626 H     813  UNL813      0.1146
   3251 H          12.3725   14.5208   11.0732 H     813  UNL813      0.1146
   3252 H          12.4963   15.8326   10.1178 H     813  UNL813      0.1146
   3253 N          11.7789   14.9896   12.8817 N.3   814  UNL814     -0.3437
   3254 H          11.4535   15.5195   13.6890 H     814  UNL814      0.1146
   3255 H          12.4267   15.6011   12.3869 H     814  UNL814      0.1146
   3256 H          12.3423   14.2269   13.2550 H     814  UNL814      0.1146
   3257 N          11.8817   14.9101   15.4868 N.3   815  UNL815     -0.3437
   3258 H          11.1799   15.4121   16.0289 H     815  UNL815      0.1146
   3259 H          12.4980   15.6221   15.0974 H     815  UNL815      0.1146
   3260 H          12.4419   14.3929   16.1628 H     815  UNL815      0.1146
   3261 N          11.8716   14.9044   18.1388 N.3   816  UNL816     -0.3437
   3262 H          11.1979   15.3933   18.7265 H     816  UNL816      0.1146
   3263 H          12.4369   15.6283   17.6975 H     816  UNL816      0.1146
   3264 H          12.4949   14.4112   18.7765 H     816  UNL816      0.1146
   3265 N          11.8172   14.9367   20.7967 N.3   817  UNL817     -0.3437
   3266 H          12.3020   15.6978   20.3234 H     817  UNL817      0.1146
   3267 H          12.5448   14.3432   21.1924 H     817  UNL817      0.1146
   3268 H          11.3374   15.3595   21.5900 H     817  UNL817      0.1146
   3269 N          11.7765   15.2438   23.5079 N.3   818  UNL818     -0.3437
   3270 H          12.4333   15.8040   24.0493 H     818  UNL818      0.1146
   3271 H          12.3271   14.7909   22.7799 H     818  UNL818      0.1146
   3272 H          11.4646   14.4985   24.1288 H     818  UNL818      0.1146
   3273 N          12.1998   14.9091   26.1273 N.3   819  UNL819     -0.3437
   3274 H          11.6132   15.4037   25.4567 H     819  UNL819      0.1146
   3275 H          12.6266   15.6275   26.7106 H     819  UNL819      0.1146
   3276 H          11.5617   14.3968   26.7345 H     819  UNL819      0.1146
   3277 N          11.8109   15.2831   29.0076 N.3   820  UNL820     -0.3437
   3278 H          11.3427   14.5111   28.5352 H     820  UNL820      0.1146
   3279 H          12.3964   14.8592   29.7259 H     820  UNL820      0.1146
   3280 H          12.4513   15.6838   28.3237 H     820  UNL820      0.1146
   3281 N          11.7927   15.2286   31.6921 N.3   821  UNL821     -0.3437
   3282 H          11.4006   14.5792   31.0117 H     821  UNL821      0.1146
   3283 H          12.4078   14.6750   32.2867 H     821  UNL821      0.1146
   3284 H          12.4003   15.8544   31.1652 H     821  UNL821      0.1146
   3285 N          11.9912   12.7891   34.1919 N.3   822  UNL822     -0.3437
   3286 H          11.2772   13.1804   33.5793 H     822  UNL822      0.1146
   3287 H          12.8824   13.1420   33.8459 H     822  UNL822      0.1146
   3288 H          11.8506   13.2257   35.1019 H     822  UNL822      0.1146
   3289 N          11.7349   17.9511    0.5117 N.3   823  UNL823     -0.3437
   3290 H          12.0523   18.7341    1.0813 H     823  UNL823      0.1146
   3291 H          12.4635   17.7959   -0.1835 H     823  UNL823      0.1146
   3292 H          11.7507   17.1352    1.1220 H     823  UNL823      0.1146
   3293 N          12.2071   18.0504    2.9783 N.3   824  UNL824     -0.3437
   3294 H          12.0867   18.4095    3.9243 H     824  UNL824      0.1146
   3295 H          12.4196   17.0589    3.0792 H     824  UNL824      0.1146
   3296 H          11.2880   18.0975    2.5409 H     824  UNL824      0.1146
   3297 N          11.8358   17.8579    5.8164 N.3   825  UNL825     -0.3437
   3298 H          11.2914   18.2063    6.6042 H     825  UNL825      0.1146
   3299 H          12.5766   18.5405    5.6630 H     825  UNL825      0.1146
   3300 H          12.2976   17.0116    6.1465 H     825  UNL825      0.1146
   3301 N          11.8023   17.7437    8.4055 N.3   826  UNL826     -0.3437
   3302 H          11.3710   18.4684    8.9774 H     826  UNL826      0.1146
   3303 H          12.4634   18.2232    7.7961 H     826  UNL826      0.1146
   3304 H          12.3647   17.1810    9.0423 H     826  UNL826      0.1146
   3305 N          11.8317   18.0911   11.0649 N.3   827  UNL827     -0.3437
   3306 H          12.3089   17.4107   11.6545 H     827  UNL827      0.1146
   3307 H          12.5621   18.5648   10.5352 H     827  UNL827      0.1146
   3308 H          11.2987   17.5496   10.3860 H     827  UNL827      0.1146
   3309 N          11.7965   17.7890   13.5134 N.3   828  UNL828     -0.3437
   3310 H          11.3946   18.4003   14.2227 H     828  UNL828      0.1146
   3311 H          12.4895   18.3496   13.0194 H     828  UNL828      0.1146
   3312 H          12.3208   17.0773   14.0203 H     828  UNL828      0.1146
   3313 N          11.7749   17.7686   16.2000 N.3   829  UNL829     -0.3437
   3314 H          12.4557   18.1484   15.5438 H     829  UNL829      0.1146
   3315 H          12.2959   17.1472   16.8170 H     829  UNL829      0.1146
   3316 H          11.4750   18.5521   16.7785 H     829  UNL829      0.1146
   3317 N          11.9680   17.9943   18.6960 N.3   830  UNL830     -0.3437
   3318 H          11.4621   18.5789   19.3599 H     830  UNL830      0.1146
   3319 H          12.9401   17.9988   19.0017 H     830  UNL830      0.1146
   3320 H          11.6312   17.0442   18.8449 H     830  UNL830      0.1146
   3321 N          11.7826   18.0889   21.5402 N.3   831  UNL831     -0.3437
   3322 H          11.4543   17.3023   22.0986 H     831  UNL831      0.1146
   3323 H          12.5088   18.5421   22.0930 H     831  UNL831      0.1146
   3324 H          12.2557   17.6829   20.7340 H     831  UNL831      0.1146
   3325 N          11.8615   18.0558   24.4696 N.3   832  UNL832     -0.3437
   3326 H          11.4740   17.1231   24.3342 H     832  UNL832      0.1146
   3327 H          12.8529   17.9225   24.6642 H     832  UNL832      0.1146
   3328 H          11.8129   18.5148   23.5611 H     832  UNL832      0.1146
   3329 N          11.7704   18.0826   26.9493 N.3   833  UNL833     -0.3437
   3330 H          11.4877   17.1597   26.6226 H     833  UNL833      0.1146
   3331 H          12.3392   17.9245   27.7799 H     833  UNL833      0.1146
   3332 H          12.4041   18.4494   26.2406 H     833  UNL833      0.1146
   3333 N          11.7985   17.7948   29.7252 N.3   834  UNL834     -0.3437
   3334 H          11.3972   18.4317   29.0384 H     834  UNL834      0.1146
   3335 H          12.2753   17.0698   29.1909 H     834  UNL834      0.1146
   3336 H          12.5305   18.3200   30.2013 H     834  UNL834      0.1146
   3337 N          11.8342   16.1452   34.1393 N.3   835  UNL835     -0.3437
   3338 H          11.3903   15.2974   33.7892 H     835  UNL835      0.1146
   3339 H          12.0406   15.9690   35.1215 H     835  UNL835      0.1146
   3340 H          12.7363   16.2046   33.6691 H     835  UNL835      0.1146
   3341 N           9.8271   20.5602   -0.3259 N.3   836  UNL836     -0.3437
   3342 H           9.2993   21.2108    0.2542 H     836  UNL836      0.1146
   3343 H          10.4928   21.1271   -0.8492 H     836  UNL836      0.1146
   3344 H          10.3821   19.9973    0.3171 H     836  UNL836      0.1146
   3345 N          11.8356   20.5694    2.2991 N.3   837  UNL837     -0.3437
   3346 H          11.2752   21.1185    2.9494 H     837  UNL837      0.1146
   3347 H          12.4580   21.2307    1.8368 H     837  UNL837      0.1146
   3348 H          12.4327   19.9767    2.8741 H     837  UNL837      0.1146
   3349 N          11.7470   20.8607    5.1972 N.3   838  UNL838     -0.3437
   3350 H          11.6146   19.8771    4.9663 H     838  UNL838      0.1146
   3351 H          12.4190   20.8816    5.9629 H     838  UNL838      0.1146
   3352 H          12.2209   21.2759    4.3963 H     838  UNL838      0.1146
   3353 N          11.7654   20.6237    7.9203 N.3   839  UNL839     -0.3437
   3354 H          11.5317   21.3777    7.2760 H     839  UNL839      0.1146
   3355 H          12.2126   19.9016    7.3572 H     839  UNL839      0.1146
   3356 H          12.4917   20.9924    8.5325 H     839  UNL839      0.1146
   3357 N          11.7758   20.5619   10.5159 N.3   840  UNL840     -0.3437
   3358 H          11.4655   21.4116   10.0467 H     840  UNL840      0.1146
   3359 H          12.3449   20.0581    9.8371 H     840  UNL840      0.1146
   3360 H          12.4153   20.8637   11.2496 H     840  UNL840      0.1146
   3361 N          11.7905   20.6130   13.2294 N.3   841  UNL841     -0.3437
   3362 H          11.4349   21.3247   12.5927 H     841  UNL841      0.1146
   3363 H          12.2273   19.9038   12.6423 H     841  UNL841      0.1146
   3364 H          12.5487   21.0539   13.7482 H     841  UNL841      0.1146
   3365 N          11.8269   20.6544   15.4649 N.3   842  UNL842     -0.3437
   3366 H          11.2976   20.9357   16.2891 H     842  UNL842      0.1146
   3367 H          12.4595   21.4266   15.2603 H     842  UNL842      0.1146
   3368 H          12.4174   19.8787   15.7616 H     842  UNL842      0.1146
   3369 N          11.8239   20.5648   18.1588 N.3   843  UNL843     -0.3437
   3370 H          11.3052   21.1625   18.8008 H     843  UNL843      0.1146
   3371 H          12.4452   21.1833   17.6393 H     843  UNL843      0.1146
   3372 H          12.4271   19.9848   18.7403 H     843  UNL843      0.1146
   3373 N          11.8285   20.5837   20.7802 N.3   844  UNL844     -0.3437
   3374 H          11.2940   21.0494   21.5122 H     844  UNL844      0.1146
   3375 H          12.4056   21.3057   20.3512 H     844  UNL844      0.1146
   3376 H          12.4733   19.9565   21.2590 H     844  UNL844      0.1146
   3377 N          11.8159   20.5512   23.4630 N.3   845  UNL845     -0.3437
   3378 H          11.3274   21.2147   24.0626 H     845  UNL845      0.1146
   3379 H          12.4242   21.1084   22.8646 H     845  UNL845      0.1146
   3380 H          12.4339   20.0211   24.0757 H     845  UNL845      0.1146
   3381 N          11.8158   20.5390   26.1189 N.3   846  UNL846     -0.3437
   3382 H          11.3278   21.2503   26.6612 H     846  UNL846      0.1146
   3383 H          12.4236   21.0441   25.4756 H     846  UNL846      0.1146
   3384 H          12.4342   20.0619   26.7734 H     846  UNL846      0.1146
   3385 N          11.7996   20.5783   28.7372 N.3   847  UNL847     -0.3437
   3386 H          11.3775   21.2127   29.4137 H     847  UNL847      0.1146
   3387 H          12.4227   21.1490   28.1676 H     847  UNL847      0.1146
   3388 H          12.4015   19.9554   29.2739 H     847  UNL847      0.1146
   3389 N          11.7906   20.5900   31.3793 N.3   848  UNL848     -0.3437
   3390 H          11.4083   21.2152   32.0874 H     848  UNL848      0.1146
   3391 H          12.4161   21.1590   30.8105 H     848  UNL848      0.1146
   3392 H          12.3865   19.9312   31.8785 H     848  UNL848      0.1146
   3393 N          11.7925   18.9098   35.2777 N.3   849  UNL849     -0.3437
   3394 H          11.8347   18.0464   35.8172 H     849  UNL849      0.1146
   3395 H          12.7287   19.3103   35.3149 H     849  UNL849      0.1146
   3396 H          11.6456   18.6289   34.3092 H     849  UNL849      0.1146
   3397 N          11.8315   23.4294   -0.3650 N.3   850  UNL850     -0.3437
   3398 H          11.2940   23.9555    0.3225 H     850  UNL850      0.1146
   3399 H          12.5378   24.0719   -0.7209 H     850  UNL850      0.1146
   3400 H          12.3381   22.7176    0.1594 H     850  UNL850      0.1146
   3401 N          11.8273   23.3789    2.3158 N.3   851  UNL851     -0.3437
   3402 H          11.2966   23.9549    2.9677 H     851  UNL851      0.1146
   3403 H          12.4181   24.0215    1.7899 H     851  UNL851      0.1146
   3404 H          12.4595   22.8191    2.8861 H     851  UNL851      0.1146
   3405 N          11.8089   23.3946    4.9618 N.3   852  UNL852     -0.3437
   3406 H          11.3483   24.0104    5.6304 H     852  UNL852      0.1146
   3407 H          12.4350   23.9876    4.4188 H     852  UNL852      0.1146
   3408 H          12.4092   22.7818    5.5117 H     852  UNL852      0.1146
   3409 N          11.7994   23.3930    7.6156 N.3   853  UNL853     -0.3437
   3410 H          11.3783   24.0503    8.2706 H     853  UNL853      0.1146
   3411 H          12.4232   23.9436    7.0272 H     853  UNL853      0.1146
   3412 H          12.4005   22.7875    8.1726 H     853  UNL853      0.1146
   3413 N          11.7968   23.3854   10.2677 N.3   854  UNL854     -0.3437
   3414 H          11.3867   24.0767   10.8941 H     854  UNL854      0.1146
   3415 H          12.4116   23.9034    9.6415 H     854  UNL854      0.1146
   3416 H          12.4063   22.8089   10.8461 H     854  UNL854      0.1146
   3417 N          11.7967   23.3990   12.8951 N.3   855  UNL855     -0.3437
   3418 H          11.3876   24.0553   13.5586 H     855  UNL855      0.1146
   3419 H          12.4314   23.9454   12.3146 H     855  UNL855      0.1146
   3420 H          12.3858   22.7747   13.4444 H     855  UNL855      0.1146
   3421 N          11.8164   23.3738   15.5368 N.3   856  UNL856     -0.3437
   3422 H          11.3268   24.0578   16.1119 H     856  UNL856      0.1146
   3423 H          12.4579   23.9068   14.9514 H     856  UNL856      0.1146
   3424 H          12.4003   22.8361   16.1758 H     856  UNL856      0.1146
   3425 N          11.8186   23.4063   18.1464 N.3   857  UNL857     -0.3437
   3426 H          11.3246   24.0133   18.7991 H     857  UNL857      0.1146
   3427 H          12.5015   23.9976   17.6749 H     857  UNL857      0.1146
   3428 H          12.3567   22.7573   18.7188 H     857  UNL857      0.1146
   3429 N          12.1811   23.6913   20.7943 N.3   858  UNL858     -0.3437
   3430 H          12.6816   23.0787   21.4367 H     858  UNL858      0.1146
   3431 H          11.5219   23.0962   20.2947 H     858  UNL858      0.1146
   3432 H          11.6168   24.3083   21.3768 H     858  UNL858      0.1146
   3433 N          11.7872   23.4357   23.4424 N.3   859  UNL859     -0.3437
   3434 H          11.4243   24.0220   24.1927 H     859  UNL859      0.1146
   3435 H          12.4568   24.0120   22.9345 H     859  UNL859      0.1146
   3436 H          12.3332   22.7047   23.8962 H     859  UNL859      0.1146
   3437 N          11.7876   23.4166   26.0960 N.3   860  UNL860     -0.3437
   3438 H          11.4236   24.0920   26.7666 H     860  UNL860      0.1146
   3439 H          12.4646   23.9228   25.5269 H     860  UNL860      0.1146
   3440 H          12.3255   22.7431   26.6396 H     860  UNL860      0.1146
   3441 N          11.8054   23.3933   28.7345 N.3   861  UNL861     -0.3437
   3442 H          11.3600   24.0496   29.3742 H     861  UNL861      0.1146
   3443 H          12.4509   23.9446   28.1708 H     861  UNL861      0.1146
   3444 H          12.3852   22.7869   29.3130 H     861  UNL861      0.1146
   3445 N          11.7829   23.4082   31.3915 N.3   862  UNL862     -0.3437
   3446 H          11.4366   24.0775   32.0774 H     862  UNL862      0.1146
   3447 H          12.4080   23.9309   30.7796 H     862  UNL862      0.1146
   3448 H          12.3739   22.7578   31.9073 H     862  UNL862      0.1146
   3449 N          11.7155   21.5780   34.2507 N.3   863  UNL863     -0.3437
   3450 H          11.9031   20.6867   33.7938 H     863  UNL863      0.1146
   3451 H          12.3306   21.6126   35.0623 H     863  UNL863      0.1146
   3452 H          12.0522   22.2972   33.6122 H     863  UNL863      0.1146
   3453 N          11.8251   26.2397   -0.3544 N.3   864  UNL864     -0.3437
   3454 H          11.3103   26.8098    0.3153 H     864  UNL864      0.1146
   3455 H          12.5301   26.8526   -0.7615 H     864  UNL864      0.1146
   3456 H          12.3359   25.5514    0.1967 H     864  UNL864      0.1146
   3457 N          11.7727   26.2821    2.3197 N.3   865  UNL865     -0.3437
   3458 H          12.0773   25.5421    2.9506 H     865  UNL865      0.1146
   3459 H          11.5566   27.0837    2.9106 H     865  UNL865      0.1146
   3460 H          12.5948   26.5457    1.7785 H     865  UNL865      0.1146
   3461 N          11.8088   26.4953    5.3131 N.3   866  UNL866     -0.3437
   3462 H          11.3517   25.8920    4.6308 H     866  UNL866      0.1146
   3463 H          12.4792   25.9060    5.8047 H     866  UNL866      0.1146
   3464 H          12.3618   27.1602    4.7741 H     866  UNL866      0.1146
   3465 N          11.8266   26.4552    7.9923 N.3   867  UNL867     -0.3437
   3466 H          11.3002   26.1879    7.1618 H     867  UNL867      0.1146
   3467 H          12.3869   25.6419    8.2435 H     867  UNL867      0.1146
   3468 H          12.4877   27.1686    7.6883 H     867  UNL867      0.1146
   3469 N          11.7848   26.2956   10.2217 N.3   868  UNL868     -0.3437
   3470 H          11.4291   26.6193   11.1201 H     868  UNL868      0.1146
   3471 H          12.3961   27.0352    9.8787 H     868  UNL868      0.1146
   3472 H          12.3914   25.5034   10.4288 H     868  UNL868      0.1146
   3473 N          11.8062   26.5249   13.2068 N.3   869  UNL869     -0.3437
   3474 H          11.3583   25.8148   12.6294 H     869  UNL869      0.1146
   3475 H          12.4648   26.0270   13.8041 H     869  UNL869      0.1146
   3476 H          12.3720   27.0869   12.5724 H     869  UNL869      0.1146
   3477 N          11.8176   26.4575   15.9064 N.3   870  UNL870     -0.3437
   3478 H          11.3236   26.0506   15.1135 H     870  UNL870      0.1146
   3479 H          12.4648   25.7408   16.2320 H     870  UNL870      0.1146
   3480 H          12.3954   27.2047   15.5239 H     870  UNL870      0.1146
   3481 N          11.8165   26.2645   18.1255 N.3   871  UNL871     -0.3437
   3482 H          11.3320   26.7535   18.8769 H     871  UNL871      0.1146
   3483 H          12.5087   26.9195   17.7647 H     871  UNL871      0.1146
   3484 H          12.3443   25.5160   18.5721 H     871  UNL871      0.1146
   3485 N          11.8233   26.1825   20.8230 N.3   872  UNL872     -0.3437
   3486 H          11.3108   26.7895   21.4612 H     872  UNL872      0.1146
   3487 H          12.3668   26.8010   20.2226 H     872  UNL872      0.1146
   3488 H          12.5005   25.6806   21.3957 H     872  UNL872      0.1146
   3489 N          11.7990   26.2223   23.4524 N.3   873  UNL873     -0.3437
   3490 H          11.3798   26.8527   24.1345 H     873  UNL873      0.1146
   3491 H          12.4323   26.7931   22.8943 H     873  UNL873      0.1146
   3492 H          12.3903   25.5855   23.9847 H     873  UNL873      0.1146
   3493 N          11.7963   26.2130   26.1053 N.3   874  UNL874     -0.3437
   3494 H          11.3890   26.8938   26.7449 H     874  UNL874      0.1146
   3495 H          12.4293   26.7371   25.5029 H     874  UNL874      0.1146
   3496 H          12.3869   25.6097   26.6760 H     874  UNL874      0.1146
   3497 N          11.7939   26.2522   28.7182 N.3   875  UNL875     -0.3437
   3498 H          11.3978   26.7904   29.4875 H     875  UNL875      0.1146
   3499 H          12.4380   26.8796   28.2387 H     875  UNL875      0.1146
   3500 H          12.3718   25.5313   29.1480 H     875  UNL875      0.1146
   3501 N          11.7053   26.3523   31.5531 N.3   876  UNL876     -0.3437
   3502 H          12.1487   26.2174   32.4606 H     876  UNL876      0.1146
   3503 H          12.0497   27.2448   31.2021 H     876  UNL876      0.1146
   3504 H          12.0977   25.6391   30.9400 H     876  UNL876      0.1146
   3505 N          11.9065   24.6286   34.2705 N.3   877  UNL877     -0.3437
   3506 H          11.1572   24.0569   33.8831 H     877  UNL877      0.1146
   3507 H          12.3198   24.0783   35.0220 H     877  UNL877      0.1146
   3508 H          12.6178   24.6897   33.5433 H     877  UNL877      0.1146
   3509 N          11.8009   30.0542   -0.3270 N.3   878  UNL878     -0.3437
   3510 H          11.3824   30.7192    0.3219 H     878  UNL878      0.1146
   3511 H          12.5068   30.5746   -0.8460 H     878  UNL878      0.1146
   3512 H          12.3113   29.3848    0.2472 H     878  UNL878      0.1146
   3513 N          11.7875   30.0709    2.3182 N.3   879  UNL879     -0.3437
   3514 H          11.4304   30.7293    3.0091 H     879  UNL879      0.1146
   3515 H          12.4957   30.5766    1.7880 H     879  UNL879      0.1146
   3516 H          12.2879   29.3558    2.8441 H     879  UNL879      0.1146
   3517 N          11.7732   30.1164    4.9537 N.3   880  UNL880     -0.3437
   3518 H          11.4746   30.4690    5.8619 H     880  UNL880      0.1146
   3519 H          12.3820   30.8329    4.5606 H     880  UNL880      0.1146
   3520 H          12.3716   29.3145    5.1466 H     880  UNL880      0.1146
   3521 N          11.7147   29.2299    7.7115 N.3   881  UNL881     -0.3437
   3522 H          12.2272   30.0933    7.8855 H     881  UNL881      0.1146
   3523 H          12.2054   28.7603    6.9518 H     881  UNL881      0.1146
   3524 H          11.8542   28.6492    8.5372 H     881  UNL881      0.1146
   3525 N          11.8143   30.1012   10.1977 N.3   882  UNL882     -0.3437
   3526 H          11.3331   30.4674   11.0179 H     882  UNL882      0.1146
   3527 H          12.4603   30.8316    9.9017 H     882  UNL882      0.1146
   3528 H          12.3937   29.3325   10.5319 H     882  UNL882      0.1146
   3529 N          11.8143   30.1012   12.8386 N.3   883  UNL883     -0.3437
   3530 H          11.3331   30.4674   13.6588 H     883  UNL883      0.1146
   3531 H          12.4603   30.8316   12.5426 H     883  UNL883      0.1146
   3532 H          12.3937   29.3325   13.1727 H     883  UNL883      0.1146
   3533 N          11.8225   30.1012   15.4725 N.3   884  UNL884     -0.3437
   3534 H          11.3108   30.4674   16.2740 H     884  UNL884      0.1146
   3535 H          12.4792   30.8316   15.2011 H     884  UNL884      0.1146
   3536 H          12.3889   29.3325   15.8283 H     884  UNL884      0.1146
   3537 N          11.8235   30.0542   18.1361 N.3   885  UNL885     -0.3437
   3538 H          11.3124   30.6303   18.8034 H     885  UNL885      0.1146
   3539 H          12.5160   30.6673   17.7084 H     885  UNL885      0.1146
   3540 H          12.3495   29.3808   18.6913 H     885  UNL885      0.1146
   3541 N          12.0448   30.1580   20.6845 N.3   886  UNL886     -0.3437
   3542 H          12.7613   30.7168   21.1457 H     886  UNL886      0.1146
   3543 H          12.0402   29.2577   21.1618 H     886  UNL886      0.1146
   3544 H          11.1550   30.6002   20.9105 H     886  UNL886      0.1146
   3545 N          11.8313   30.1440   23.3771 N.3   887  UNL887     -0.3437
   3546 H          11.9489   29.2900   23.9205 H     887  UNL887      0.1146
   3547 H          11.4495   30.8359   24.0204 H     887  UNL887      0.1146
   3548 H          12.7717   30.4627   23.1477 H     887  UNL887      0.1146
   3549 N          11.8143   30.1012   26.0427 N.3   888  UNL888     -0.3437
   3550 H          11.3331   30.4674   26.8629 H     888  UNL888      0.1146
   3551 H          12.4603   30.8316   25.7467 H     888  UNL888      0.1146
   3552 H          12.3937   29.3325   26.3769 H     888  UNL888      0.1146
   3553 N          11.8143   30.1012   28.6835 N.3   889  UNL889     -0.3437
   3554 H          11.3331   30.4674   29.5037 H     889  UNL889      0.1146
   3555 H          12.4603   30.8316   28.3875 H     889  UNL889      0.1146
   3556 H          12.3937   29.3325   29.0177 H     889  UNL889      0.1146
   3557 N          11.7459   30.1398   31.3949 N.3   890  UNL890     -0.3437
   3558 H          11.6071   30.4547   32.3541 H     890  UNL890      0.1146
   3559 H          12.3353   30.8427   30.9510 H     890  UNL890      0.1146
   3560 H          12.3131   29.2955   31.4557 H     890  UNL890      0.1146
   3561 N          11.7074   29.2067   34.1482 N.3   891  UNL891     -0.3437
   3562 H          11.9751   28.7768   35.0324 H     891  UNL891      0.1146
   3563 H          12.1807   30.1087   34.1198 H     891  UNL891      0.1146
   3564 H          12.1382   28.6405   33.4187 H     891  UNL891      0.1146
   3565 N          14.3521    0.9219    0.7156 N.3   892  UNL892     -0.3437
   3566 H          14.7881    0.0931    0.3141 H     892  UNL892      0.1146
   3567 H          15.1169    1.5401    0.9828 H     892  UNL892      0.1146
   3568 H          13.8710    1.3865   -0.0531 H     892  UNL892      0.1146
   3569 N          14.3561    0.8639    2.9265 N.3   893  UNL893     -0.3437
   3570 H          14.8084    1.7167    2.6000 H     893  UNL893      0.1146
   3571 H          15.1080    0.2417    3.2196 H     893  UNL893      0.1146
   3572 H          13.8556    1.1193    3.7766 H     893  UNL893      0.1146
   3573 N          14.7621    1.0270    5.9525 N.3   894  UNL894     -0.3437
   3574 H          14.6522    0.0535    5.6722 H     894  UNL894      0.1146
   3575 H          14.8389    1.5612    5.0881 H     894  UNL894      0.1146
   3576 H          13.8750    1.2999    6.3733 H     894  UNL894      0.1146
   3577 N          14.4759    1.0835    8.2822 N.3   895  UNL895     -0.3437
   3578 H          13.6540    1.1022    8.8842 H     895  UNL895      0.1146
   3579 H          15.1871    1.6346    8.7607 H     895  UNL895      0.1146
   3580 H          14.8111    0.1213    8.2942 H     895  UNL895      0.1146
   3581 N          14.3516    0.9172   10.8292 N.3   896  UNL896     -0.3437
   3582 H          13.8499    1.2417   11.6547 H     896  UNL896      0.1146
   3583 H          15.0113    1.6569   10.5925 H     896  UNL896      0.1146
   3584 H          14.9154    0.1258   11.1363 H     896  UNL896      0.1146
   3585 N          14.3024    1.1510   13.6090 N.3   897  UNL897     -0.3437
   3586 H          14.1019    0.5952   14.4393 H     897  UNL897      0.1146
   3587 H          15.1264    1.7063   13.8350 H     897  UNL897      0.1146
   3588 H          14.5975    0.4892   12.8926 H     897  UNL897      0.1146
   3589 N          14.7736    1.1428   18.2695 N.3   898  UNL898     -0.3437
   3590 H          14.2035    0.9377   17.4502 H     898  UNL898      0.1146
   3591 H          14.1586    1.6195   18.9275 H     898  UNL898      0.1146
   3592 H          14.9925    0.2417   18.6920 H     898  UNL898      0.1146
   3593 N          14.7361    0.9001   21.1717 N.3   899  UNL899     -0.3437
   3594 H          14.6065    0.2254   20.4192 H     899  UNL899      0.1146
   3595 H          14.9684    1.7835   20.7200 H     899  UNL899      0.1146
   3596 H          13.8172    1.0326   21.5916 H     899  UNL899      0.1146
   3597 N          14.3349    1.1419   23.7714 N.3   900  UNL900     -0.3437
   3598 H          13.9151    0.3525   23.2824 H     900  UNL900      0.1146
   3599 H          15.0734    0.7506   24.3544 H     900  UNL900      0.1146
   3600 H          14.8049    1.6967   23.0576 H     900  UNL900      0.1146
   3601 N          14.2933    1.0920   26.3951 N.3   901  UNL901     -0.3437
   3602 H          14.0638    0.3798   25.7035 H     901  UNL901      0.1146
   3603 H          14.9573    0.6585   27.0351 H     901  UNL901      0.1146
   3604 H          14.8139    1.8114   25.8953 H     901  UNL901      0.1146
   3605 N          14.3341    1.0652   29.1026 N.3   902  UNL902     -0.3437
   3606 H          13.9173    0.5428   28.3333 H     902  UNL902      0.1146
   3607 H          15.0715    0.4710   29.4787 H     902  UNL902      0.1146
   3608 H          14.8053    1.8626   28.6778 H     902  UNL902      0.1146
   3609 N          12.5579    1.1187   31.7417 N.3   903  UNL903     -0.3437
   3610 H          13.0640    0.4117   31.2103 H     903  UNL903      0.1146
   3611 H          12.1796    1.7692   31.0546 H     903  UNL903      0.1146
   3612 H          11.7547    0.6421   32.1492 H     903  UNL903      0.1146
   3613 N          14.3858    0.7300   35.2072 N.3   904  UNL904     -0.3437
   3614 H          15.3598    0.6595   35.4981 H     904  UNL904      0.1146
   3615 H          13.9793    1.4790   35.7659 H     904  UNL904      0.1146
   3616 H          14.4033    1.0731   34.2479 H     904  UNL904      0.1146
   3617 N          14.3396    3.6481   -0.3112 N.3   905  UNL905     -0.3437
   3618 H          13.8844    4.3289    0.2952 H     905  UNL905      0.1146
   3619 H          14.9927    4.1775   -0.8872 H     905  UNL905      0.1146
   3620 H          14.9115    3.0663    0.2993 H     905  UNL905      0.1146
   3621 N          14.3465    3.9917    2.6245 N.3   906  UNL906     -0.3437
   3622 H          13.8626    3.2753    2.0852 H     906  UNL906      0.1146
   3623 H          14.9475    3.4927    3.2788 H     906  UNL906      0.1146
   3624 H          14.9716    4.4611    1.9709 H     906  UNL906      0.1146
   3625 N          14.3584    3.9134    5.3440 N.3   907  UNL907     -0.3437
   3626 H          13.8442    3.3595    4.6606 H     907  UNL907      0.1146
   3627 H          15.0923    3.3049    5.7039 H     907  UNL907      0.1146
   3628 H          14.8332    4.6430    4.8143 H     907  UNL907      0.1146
   3629 N          14.3272    3.7266    7.5734 N.3   908  UNL908     -0.3437
   3630 H          13.9228    4.0620    8.4465 H     908  UNL908      0.1146
   3631 H          14.9327    4.4747    7.2386 H     908  UNL908      0.1146
   3632 H          14.9455    2.9575    7.8275 H     908  UNL908      0.1146
   3633 N          14.3329    3.9743   10.5506 N.3   909  UNL909     -0.3437
   3634 H          13.9183    3.1485   10.1211 H     909  UNL909      0.1146
   3635 H          15.0603    3.6304   11.1760 H     909  UNL909      0.1146
   3636 H          14.8167    4.4675    9.8016 H     909  UNL909      0.1146
   3637 N          14.3134    3.8092   12.8543 N.3   910  UNL910     -0.3437
   3638 H          13.9732    3.7479   13.8129 H     910  UNL910      0.1146
   3639 H          14.8963    4.6441   12.8159 H     910  UNL910      0.1146
   3640 H          14.9453    3.0196   12.7295 H     910  UNL910      0.1146
   3641 N          14.2897    3.9143   15.8233 N.3   911  UNL911     -0.3437
   3642 H          14.1240    3.0176   15.3685 H     911  UNL911      0.1146
   3643 H          15.0516    3.7588   16.4818 H     911  UNL911      0.1146
   3644 H          14.6630    4.5301   15.1023 H     911  UNL911      0.1146
   3645 N          14.3086    3.7759   18.1436 N.3   912  UNL912     -0.3437
   3646 H          14.0014    3.7538   19.1149 H     912  UNL912      0.1146
   3647 H          14.8134    4.6536   18.0285 H     912  UNL912      0.1146
   3648 H          15.0048    3.0375   18.0523 H     912  UNL912      0.1146
   3649 N          14.7614    3.8624   21.1531 N.3   913  UNL913     -0.3437
   3650 H          14.0915    3.2180   21.5705 H     913  UNL913      0.1146
   3651 H          15.0427    3.4414   20.2687 H     913  UNL913      0.1146
   3652 H          14.2327    4.6990   20.9103 H     913  UNL913      0.1146
   3653 N          14.3409    3.6598   23.4442 N.3   914  UNL914     -0.3437
   3654 H          13.8905    4.1118   24.2386 H     914  UNL914      0.1146
   3655 H          14.8382    4.3969   22.9464 H     914  UNL914      0.1146
   3656 H          15.0587    3.0522   23.8366 H     914  UNL914      0.1146
   3657 N          14.3257    3.9550   26.4068 N.3   915  UNL915     -0.3437
   3658 H          13.9287    3.2618   25.7740 H     915  UNL915      0.1146
   3659 H          14.9628    3.4455   27.0175 H     915  UNL915      0.1146
   3660 H          14.9110    4.5584   25.8309 H     915  UNL915      0.1146
   3661 N          14.3252    3.9319   29.0671 N.3   916  UNL916     -0.3437
   3662 H          13.9345    3.2810   28.3872 H     916  UNL916      0.1146
   3663 H          15.0041    3.3986   29.6084 H     916  UNL916      0.1146
   3664 H          14.8644    4.6093   28.5297 H     916  UNL916      0.1146
   3665 N          14.2735    3.9232   31.6201 N.3   917  UNL917     -0.3437
   3666 H          14.8694    3.6957   32.4147 H     917  UNL917      0.1146
   3667 H          14.8215    4.5446   31.0268 H     917  UNL917      0.1146
   3668 H          14.1638    3.0573   31.0942 H     917  UNL917      0.1146
   3669 N          14.3489    3.5796   35.1254 N.3   918  UNL918     -0.3437
   3670 H          13.9910    4.2151   35.8370 H     918  UNL918      0.1146
   3671 H          14.5253    4.1519   34.3008 H     918  UNL918      0.1146
   3672 H          15.2631    3.2741   35.4559 H     918  UNL918      0.1146
   3673 N          14.3255    6.4655   -0.2899 N.3   919  UNL919     -0.3437
   3674 H          13.9312    7.1165    0.3877 H     919  UNL919      0.1146
   3675 H          14.8841    7.0293   -0.9290 H     919  UNL919      0.1146
   3676 H          14.9874    5.8885    0.2273 H     919  UNL919      0.1146
   3677 N          14.7590    6.4925    2.6253 N.3   920  UNL920     -0.3437
   3678 H          14.3603    7.2518    3.1757 H     920  UNL920      0.1146
   3679 H          13.9897    5.8536    2.4293 H     920  UNL920      0.1146
   3680 H          15.0192    6.9019    1.7291 H     920  UNL920      0.1146
   3681 N          14.3344    6.7521    5.3099 N.3   921  UNL921     -0.3437
   3682 H          13.8996    6.1958    4.5752 H     921  UNL921      0.1146
   3683 H          14.9656    6.1221    5.8030 H     921  UNL921      0.1146
   3684 H          14.9287    7.4298    4.8346 H     921  UNL921      0.1146
   3685 N          14.3430    6.7206    7.9776 N.3   922  UNL922     -0.3437
   3686 H          13.8736    6.2982    7.1778 H     922  UNL922      0.1146
   3687 H          14.9867    6.0141    8.3309 H     922  UNL922      0.1146
   3688 H          14.9249    7.4669    7.5997 H     922  UNL922      0.1146
   3689 N          14.3591    6.4576   10.2407 N.3   923  UNL923     -0.3437
   3690 H          13.8301    7.0093   10.9147 H     923  UNL923      0.1146
   3691 H          14.9165    7.1240    9.7081 H     923  UNL923      0.1146
   3692 H          15.0226    5.9090   10.7859 H     923  UNL923      0.1146
   3693 N          14.3267    6.7767   13.2021 N.3   924  UNL924     -0.3437
   3694 H          13.9247    6.1000   12.5549 H     924  UNL924      0.1146
   3695 H          14.9460    6.2468   13.8136 H     924  UNL924      0.1146
   3696 H          14.9308    7.3764   12.6420 H     924  UNL924      0.1146
   3697 N          14.3501    6.7769   15.8706 N.3   925  UNL925     -0.3437
   3698 H          13.8521    6.1845   15.2077 H     925  UNL925      0.1146
   3699 H          14.9745    6.1582   16.3861 H     925  UNL925      0.1146
   3700 H          14.9514    7.3803   15.3115 H     925  UNL925      0.1146
   3701 N          14.3620    6.8119   18.4882 N.3   926  UNL926     -0.3437
   3702 H          13.8236    6.2033   17.8732 H     926  UNL926      0.1146
   3703 H          14.9081    6.1940   19.0869 H     926  UNL926      0.1146
   3704 H          15.0346    7.2907   17.8909 H     926  UNL926      0.1146
   3705 N          14.3808    6.8161   21.1429 N.3   927  UNL927     -0.3437
   3706 H          13.7862    6.3062   20.4910 H     927  UNL927      0.1146
   3707 H          14.8655    6.1085   21.6932 H     927  UNL927      0.1146
   3708 H          15.0958    7.2690   20.5754 H     927  UNL927      0.1146
   3709 N          14.3392    6.7585   23.7963 N.3   928  UNL928     -0.3437
   3710 H          13.8975    6.0762   23.1817 H     928  UNL928      0.1146
   3711 H          15.0648    6.2525   24.3022 H     928  UNL928      0.1146
   3712 H          14.8267    7.4126   23.1856 H     928  UNL928      0.1146
   3713 N          14.3333    6.7734   26.4181 N.3   929  UNL929     -0.3437
   3714 H          13.9053    6.0881   25.7972 H     929  UNL929      0.1146
   3715 H          14.9977    6.2561   26.9920 H     929  UNL929      0.1146
   3716 H          14.8919    7.3823   25.8218 H     929  UNL929      0.1146
   3717 N          14.3420    6.7623   29.0781 N.3   930  UNL930     -0.3437
   3718 H          13.8760    6.1944   28.3719 H     930  UNL930      0.1146
   3719 H          14.9705    6.1326   29.5750 H     930  UNL930      0.1146
   3720 H          14.9398    7.4106   28.5675 H     930  UNL930      0.1146
   3721 N          12.3456    6.7978   31.6897 N.3   931  UNL931     -0.3437
   3722 H          12.9585    6.2556   32.2969 H     931  UNL931      0.1146
   3723 H          12.9591    7.3256   31.0704 H     931  UNL931      0.1146
   3724 H          11.8651    6.1208   31.0988 H     931  UNL931      0.1146
   3725 N          14.3105    6.4609   35.2864 N.3   932  UNL932     -0.3437
   3726 H          15.2025    6.2589   35.7359 H     932  UNL932      0.1146
   3727 H          14.1546    7.4605   35.4082 H     932  UNL932      0.1146
   3728 H          14.4606    6.3196   34.2885 H     932  UNL932      0.1146
   3729 N          14.3656    9.3448   -0.3739 N.3   933  UNL933     -0.3437
   3730 H          13.8110    9.7131    0.3975 H     933  UNL933      0.1146
   3731 H          14.9905   10.0988   -0.6557 H     933  UNL933      0.1146
   3732 H          14.9611    8.6222    0.0282 H     933  UNL933      0.1146
   3733 N          14.7166    9.3223    2.6857 N.3   934  UNL934     -0.3437
   3734 H          14.3003    8.6382    2.0555 H     934  UNL934      0.1146
   3735 H          15.1740   10.0111    2.0900 H     934  UNL934      0.1146
   3736 H          13.9373    9.8073    3.1282 H     934  UNL934      0.1146
   3737 N          14.3526    9.5948    5.3113 N.3   935  UNL935     -0.3437
   3738 H          13.8454    9.0165    4.6430 H     935  UNL935      0.1146
   3739 H          14.9774    8.9640    5.8113 H     935  UNL935      0.1146
   3740 H          14.9529   10.2037    4.7571 H     935  UNL935      0.1146
   3741 N          14.3269    9.6021    7.9148 N.3   936  UNL936     -0.3437
   3742 H          13.9238    8.9047    7.2907 H     936  UNL936      0.1146
   3743 H          14.9439    9.0917    8.5452 H     936  UNL936      0.1146
   3744 H          14.9336   10.1804    7.3353 H     936  UNL936      0.1146
   3745 N          14.3488    9.5921   10.5915 N.3   937  UNL937     -0.3437
   3746 H          13.8563    8.9961    9.9277 H     937  UNL937      0.1146
   3747 H          14.9878    8.9806   11.0976 H     937  UNL937      0.1146
   3748 H          14.9352   10.2102   10.0325 H     937  UNL937      0.1146
   3749 N          14.3358    9.5957   13.2146 N.3   938  UNL938     -0.3437
   3750 H          13.8950    8.9476   12.5635 H     938  UNL938      0.1146
   3751 H          14.9672    9.0350   13.7849 H     938  UNL938      0.1146
   3752 H          14.9302   10.2007   12.6496 H     938  UNL938      0.1146
   3753 N          14.3475    9.5695   15.8883 N.3   939  UNL939     -0.3437
   3754 H          13.8603    9.0468   15.1619 H     939  UNL939      0.1146
   3755 H          14.9923    8.9112   16.3235 H     939  UNL939      0.1146
   3756 H          14.9281   10.2514   15.4022 H     939  UNL939      0.1146
   3757 N          14.3636    9.2936   18.1447 N.3   940  UNL940     -0.3437
   3758 H          13.8233    9.9258   18.7335 H     940  UNL940      0.1146
   3759 H          15.0622    9.8714   17.6793 H     940  UNL940      0.1146
   3760 H          14.8792    8.6881   18.7818 H     940  UNL940      0.1146
   3761 N          14.3534    9.6146   21.1387 N.3   941  UNL941     -0.3437
   3762 H          13.8538    9.0945   20.4188 H     941  UNL941      0.1146
   3763 H          14.8509    8.9193   21.6933 H     941  UNL941      0.1146
   3764 H          15.0702   10.1506   20.6517 H     941  UNL941      0.1146
   3765 N          14.3683    9.6040   23.8041 N.3   942  UNL942     -0.3437
   3766 H          13.8048    9.0253   23.1828 H     942  UNL942      0.1146
   3767 H          15.0058    8.9671   24.2799 H     942  UNL942      0.1146
   3768 H          14.9492   10.1826   23.1990 H     942  UNL942      0.1146
   3769 N          14.3459    9.6011   26.4255 N.3   943  UNL943     -0.3437
   3770 H          13.8645    9.0153   25.7447 H     943  UNL943      0.1146
   3771 H          14.9357    8.9729   26.9694 H     943  UNL943      0.1146
   3772 H          14.9820   10.1897   25.8895 H     943  UNL943      0.1146
   3773 N          14.3342    9.5953   29.0580 N.3   944  UNL944     -0.3437
   3774 H          13.8998    8.9477   28.4021 H     944  UNL944      0.1146
   3775 H          14.9611    9.0344   29.6331 H     944  UNL944      0.1146
   3776 H          14.9330   10.2016   28.4992 H     944  UNL944      0.1146
   3777 N          14.3224    9.6011   31.6767 N.3   945  UNL945     -0.3437
   3778 H          13.9394    8.8932   31.0518 H     945  UNL945      0.1146
   3779 H          14.9327    9.1039   32.3238 H     945  UNL945      0.1146
   3780 H          14.9337   10.1807   31.1034 H     945  UNL945      0.1146
   3781 N          14.5448    9.7396   35.1964 N.3   946  UNL946     -0.3437
   3782 H          13.7048    9.3565   35.6277 H     946  UNL946      0.1146
   3783 H          15.3305    9.2844   35.6588 H     946  UNL946      0.1146
   3784 H          14.5481    9.3984   34.2362 H     946  UNL946      0.1146
   3785 N          14.7680   12.3583    0.6412 N.3   947  UNL947     -0.3437
   3786 H          14.9626   12.2273   -0.3504 H     947  UNL947      0.1146
   3787 H          13.9843   13.0079    0.6903 H     947  UNL947      0.1146
   3788 H          14.4133   11.4645    0.9783 H     947  UNL947      0.1146
   3789 N          14.3453   12.1714    2.9213 N.3   948  UNL948     -0.3437
   3790 H          13.8726   12.6510    3.6861 H     948  UNL948      0.1146
   3791 H          15.0407   12.8262    2.5663 H     948  UNL948      0.1146
   3792 H          14.8697   11.4095    3.3490 H     948  UNL948      0.1146
   3793 N          14.3438   12.1315    5.5865 N.3   949  UNL949     -0.3437
   3794 H          13.8759   12.7507    6.2468 H     949  UNL949      0.1146
   3795 H          15.0326   12.7058    5.1025 H     949  UNL949      0.1146
   3796 H          14.8759   11.4701    6.1502 H     949  UNL949      0.1146
   3797 N          14.3335   12.1376    8.2339 N.3   950  UNL950     -0.3437
   3798 H          13.9085   12.7733    8.9074 H     950  UNL950      0.1146
   3799 H          15.0249   12.6876    7.7261 H     950  UNL950      0.1146
   3800 H          14.8613   11.4597    8.7819 H     950  UNL950      0.1146
   3801 N          14.3071   12.1429   10.9050 N.3   951  UNL951     -0.3437
   3802 H          14.0167   12.9253   11.4897 H     951  UNL951      0.1146
   3803 H          15.0336   12.5064   10.2898 H     951  UNL951      0.1146
   3804 H          14.7709   11.4835   11.5282 H     951  UNL951      0.1146
   3805 N          14.3106   12.1266   13.5549 N.3   952  UNL952     -0.3437
   3806 H          13.9965   12.9327   14.0934 H     952  UNL952      0.1146
   3807 H          15.0215   12.4767   12.9141 H     952  UNL952      0.1146
   3808 H          14.7996   11.5221   14.2135 H     952  UNL952      0.1146
   3809 N          14.3098   12.1232   16.2006 N.3   953  UNL953     -0.3437
   3810 H          13.9866   12.8348   16.8544 H     953  UNL953      0.1146
   3811 H          14.9251   12.6029   15.5450 H     953  UNL953      0.1146
   3812 H          14.9068   11.4972   16.7392 H     953  UNL953      0.1146
   3813 N          14.3233   12.1202   18.8241 N.3   954  UNL954     -0.3437
   3814 H          13.9485   12.8914   19.3748 H     954  UNL954      0.1146
   3815 H          15.0378   12.5265   18.2218 H     954  UNL954      0.1146
   3816 H          14.8186   11.5200   19.4819 H     954  UNL954      0.1146
   3817 N          14.2884   12.2304   21.4527 N.3   955  UNL955     -0.3437
   3818 H          14.1498   12.8651   22.2377 H     955  UNL955      0.1146
   3819 H          15.0711   12.6083   20.9208 H     955  UNL955      0.1146
   3820 H          14.6189   11.3543   21.8547 H     955  UNL955      0.1146
   3821 N          14.3273   12.1699   24.2092 N.3   956  UNL956     -0.3437
   3822 H          13.9960   12.9350   24.7951 H     956  UNL956      0.1146
   3823 H          15.1684   12.5135   23.7477 H     956  UNL956      0.1146
   3824 H          14.6366   11.4397   24.8492 H     956  UNL956      0.1146
   3825 N          14.3326   12.1229   26.7321 N.3   957  UNL957     -0.3437
   3826 H          13.9141   12.8339   27.3302 H     957  UNL957      0.1146
   3827 H          15.0384   12.6036   26.1760 H     957  UNL957      0.1146
   3828 H          14.8431   11.4977   27.3541 H     957  UNL957      0.1146
   3829 N          14.3116   12.1357   29.3900 N.3   958  UNL958     -0.3437
   3830 H          13.9837   12.8447   30.0444 H     958  UNL958      0.1146
   3831 H          14.9790   12.6046   28.7791 H     958  UNL958      0.1146
   3832 H          14.8540   11.4730   29.9423 H     958  UNL958      0.1146
   3833 N          14.3890   12.1425   31.9516 N.3   959  UNL959     -0.3437
   3834 H          13.9476   13.0001   32.2804 H     959  UNL959      0.1146
   3835 H          15.3514   12.3905   31.7265 H     959  UNL959      0.1146
   3836 H          14.4401   11.5250   32.7606 H     959  UNL959      0.1146
   3837 N          14.3392   15.0568   -0.3733 N.3   960  UNL960     -0.3437
   3838 H          13.8975   15.3474    0.4978 H     960  UNL960      0.1146
   3839 H          15.0648   15.7464   -0.5640 H     960  UNL960      0.1146
   3840 H          14.8267   14.1867   -0.1644 H     960  UNL960      0.1146
   3841 N          14.3373   14.8832    2.3951 N.3   961  UNL961     -0.3437
   3842 H          13.8918   15.6829    2.8427 H     961  UNL961      0.1146
   3843 H          14.9079   15.2647    1.6419 H     961  UNL961      0.1146
   3844 H          14.9913   14.5065    3.0797 H     961  UNL961      0.1146
   3845 N          14.3178   15.1666    5.3169 N.3   962  UNL962     -0.3437
   3846 H          13.9741   14.5878    4.5520 H     962  UNL962      0.1146
   3847 H          15.0496   14.6236    5.7731 H     962  UNL962      0.1146
   3848 H          14.7868   15.9591    4.8807 H     962  UNL962      0.1146
   3849 N          14.3248   15.2417    7.9116 N.3   963  UNL963     -0.3437
   3850 H          13.9312   14.5287    7.2991 H     963  UNL963      0.1146
   3851 H          14.9463   14.7499    8.5521 H     963  UNL963      0.1146
   3852 H          14.9259   15.8169    7.3232 H     963  UNL963      0.1146
   3853 N          14.3553   15.2248   10.6031 N.3   964  UNL964     -0.3437
   3854 H          13.8383   14.7355    9.8740 H     964  UNL964      0.1146
   3855 H          14.9406   14.5219   11.0523 H     964  UNL964      0.1146
   3856 H          14.9940   15.8549   10.1199 H     964  UNL964      0.1146
   3857 N          14.3431   14.9794   12.8515 N.3   965  UNL965     -0.3437
   3858 H          13.8728   15.4267   13.6370 H     965  UNL965      0.1146
   3859 H          14.9792   15.6782   12.4700 H     965  UNL965      0.1146
   3860 H          14.9331   14.2527   13.2541 H     965  UNL965      0.1146
   3861 N          14.2724   15.2246   15.7097 N.3   966  UNL966     -0.3437
   3862 H          14.1713   14.2298   15.5136 H     966  UNL966      0.1146
   3863 H          14.8075   15.2875   16.5747 H     966  UNL966      0.1146
   3864 H          14.8770   15.5952   14.9779 H     966  UNL966      0.1146
   3865 N          14.3001   15.0287   18.5094 N.3   967  UNL967     -0.3437
   3866 H          14.1067   15.7481   17.8140 H     967  UNL967      0.1146
   3867 H          14.6061   14.2087   17.9876 H     967  UNL967      0.1146
   3868 H          15.1154   15.3517   19.0283 H     967  UNL967      0.1146
   3869 N          14.3197   14.9464   21.1282 N.3   968  UNL968     -0.3437
   3870 H          13.9534   15.6598   20.4995 H     968  UNL968      0.1146
   3871 H          14.8627   14.3106   20.5457 H     968  UNL968      0.1146
   3872 H          14.9924   15.4203   21.7292 H     968  UNL968      0.1146
   3873 N          14.3437   14.9554   23.8043 N.3   969  UNL969     -0.3437
   3874 H          13.8719   15.5119   23.0929 H     969  UNL969      0.1146
   3875 H          14.9188   14.2828   23.2990 H     969  UNL969      0.1146
   3876 H          14.9939   15.5871   24.2697 H     969  UNL969      0.1146
   3877 N          14.3248   14.9447   26.4151 N.3   970  UNL970     -0.3437
   3878 H          13.9335   15.5083   25.6617 H     970  UNL970      0.1146
   3879 H          14.9826   14.3036   25.9738 H     970  UNL970      0.1146
   3880 H          14.8874   15.5806   26.9785 H     970  UNL970      0.1146
   3881 N          14.3285   15.2113   29.0707 N.3   971  UNL971     -0.3437
   3882 H          13.9186   14.6662   28.3136 H     971  UNL971      0.1146
   3883 H          14.9345   14.5710   29.5817 H     971  UNL971      0.1146
   3884 H          14.9467   15.8886   28.6264 H     971  UNL971      0.1146
   3885 N          14.2981   15.2403   31.6302 N.3   972  UNL972     -0.3437
   3886 H          14.0380   14.4382   31.0581 H     972  UNL972      0.1146
   3887 H          14.8491   14.8677   32.4023 H     972  UNL972      0.1146
   3888 H          14.9430   15.7909   31.0651 H     972  UNL972      0.1146
   3889 N          14.4227   14.8283   35.0804 N.3   973  UNL973     -0.3437
   3890 H          13.7767   15.3201   35.6961 H     973  UNL973      0.1146
   3891 H          14.6458   15.4797   34.3292 H     973  UNL973      0.1146
   3892 H          15.2830   14.7091   35.6133 H     973  UNL973      0.1146
   3893 N          14.3312   17.7618    0.4692 N.3   974  UNL974     -0.3437
   3894 H          13.9123   18.4335    1.1108 H     974  UNL974      0.1146
   3895 H          14.9970   18.2889   -0.0941 H     974  UNL974      0.1146
   3896 H          14.8876   17.1321    1.0456 H     974  UNL974      0.1146
   3897 N          14.3297   17.7778    2.9561 N.3   975  UNL975     -0.3437
   3898 H          13.9301   18.4762    3.5813 H     975  UNL975      0.1146
   3899 H          15.0603   18.2562    2.4308 H     975  UNL975      0.1146
   3900 H          14.8081   17.1060    3.5545 H     975  UNL975      0.1146
   3901 N          14.3538   18.0002    5.9868 N.3   976  UNL976     -0.3437
   3902 H          14.9395   18.7393    5.6008 H     976  UNL976      0.1146
   3903 H          13.8426   17.6062    5.1982 H     976  UNL976      0.1146
   3904 H          14.9923   17.2706    6.3003 H     976  UNL976      0.1146
   3905 N          14.3776   17.7659    8.2015 N.3   977  UNL977     -0.3437
   3906 H          13.7843   18.2743    8.8556 H     977  UNL977      0.1146
   3907 H          15.0324   18.4504    7.8259 H     977  UNL977      0.1146
   3908 H          14.9339   17.1256    8.7663 H     977  UNL977      0.1146
   3909 N          14.3088   17.7600   10.9237 N.3   978  UNL978     -0.3437
   3910 H          13.9912   18.5071   11.5396 H     978  UNL978      0.1146
   3911 H          14.9376   18.1979   10.2520 H     978  UNL978      0.1146
   3912 H          14.8906   17.1512   11.4974 H     978  UNL978      0.1146
   3913 N          14.3124   17.7650   13.5533 N.3   979  UNL979     -0.3437
   3914 H          13.9770   18.4696   14.2087 H     979  UNL979      0.1146
   3915 H          14.9428   18.2508   12.9169 H     979  UNL979      0.1146
   3916 H          14.8960   17.1309   14.0970 H     979  UNL979      0.1146
   3917 N          14.6509   17.7330   16.5445 N.3   980  UNL980     -0.3437
   3918 H          15.3485   18.1261   15.9143 H     980  UNL980      0.1146
   3919 H          14.1387   18.5266   16.9268 H     980  UNL980      0.1146
   3920 H          13.9901   17.2305   15.9536 H     980  UNL980      0.1146
   3921 N          14.3661   18.1347   20.8940 N.3   981  UNL981     -0.3437
   3922 H          13.8313   17.4173   21.3815 H     981  UNL981      0.1146
   3923 H          15.1233   18.3969   21.5236 H     981  UNL981      0.1146
   3924 H          14.8075   17.6673   20.1034 H     981  UNL981      0.1146
   3925 N          14.6996   17.7635   23.4176 N.3   982  UNL982     -0.3437
   3926 H          15.2479   18.1960   24.1597 H     982  UNL982      0.1146
   3927 H          14.0367   17.1447   23.8823 H     982  UNL982      0.1146
   3928 H          14.1440   18.5121   23.0061 H     982  UNL982      0.1146
   3929 N          14.6905   17.7229   26.4290 N.3   983  UNL983     -0.3437
   3930 H          14.1145   18.3704   26.9651 H     983  UNL983      0.1146
   3931 H          14.0515   17.2230   25.8124 H     983  UNL983      0.1146
   3932 H          15.2718   18.2999   25.8227 H     983  UNL983      0.1146
   3933 N          14.3406   18.0841   29.0334 N.3   984  UNL984     -0.3437
   3934 H          13.8815   17.3946   28.4399 H     984  UNL984      0.1146
   3935 H          14.9133   17.5540   29.6886 H     984  UNL984      0.1146
   3936 H          14.9929   18.5836   28.4306 H     984  UNL984      0.1146
   3937 N          14.3464   18.0930   31.6701 N.3   985  UNL985     -0.3437
   3938 H          13.8643   17.3915   31.1099 H     985  UNL985      0.1146
   3939 H          14.9184   17.5758   32.3363 H     985  UNL985      0.1146
   3940 H          14.9992   18.5560   31.0394 H     985  UNL985      0.1146
   3941 N          14.7201   17.6783   35.1476 N.3   986  UNL986     -0.3437
   3942 H          13.8392   17.3992   35.5770 H     986  UNL986      0.1146
   3943 H          14.4741   18.1157   34.2607 H     986  UNL986      0.1146
   3944 H          15.0947   18.4230   35.7336 H     986  UNL986      0.1146
   3945 N          12.3808   20.5694   -0.3526 N.3   987  UNL987     -0.3437
   3946 H          11.7753   21.0890    0.2813 H     987  UNL987      0.1146
   3947 H          13.0063   21.2570   -0.7703 H     987  UNL987      0.1146
   3948 H          12.9658   19.9799    0.2378 H     987  UNL987      0.1146
   3949 N          14.3551   20.6128    2.2807 N.3   988  UNL988     -0.3437
   3950 H          13.8384   21.0402    3.0480 H     988  UNL988      0.1146
   3951 H          14.9796   21.3355    1.9257 H     988  UNL988      0.1146
   3952 H          14.9551   19.9069    2.7050 H     988  UNL988      0.1146
   3953 N          14.3539   20.9141    4.9912 N.3   989  UNL989     -0.3437
   3954 H          14.9770   21.3719    5.6549 H     989  UNL989      0.1146
   3955 H          14.9557   20.3964    4.3522 H     989  UNL989      0.1146
   3956 H          13.8416   20.2130    5.5245 H     989  UNL989      0.1146
   3957 N          14.3439   20.5470    7.9154 N.3   990  UNL990     -0.3437
   3958 H          13.8702   21.2342    7.3307 H     990  UNL990      0.1146
   3959 H          14.9703   20.0351    7.2958 H     990  UNL990      0.1146
   3960 H          14.9438   21.0791    8.5442 H     990  UNL990      0.1146
   3961 N          14.3265   20.5690   10.5577 N.3   991  UNL991     -0.3437
   3962 H          13.9261   21.2826    9.9504 H     991  UNL991      0.1146
   3963 H          14.9093   19.9855    9.9592 H     991  UNL991      0.1146
   3964 H          14.9663   21.0582   11.1820 H     991  UNL991      0.1146
   3965 N          14.3571   20.5913   13.2511 N.3   992  UNL992     -0.3437
   3966 H          13.8359   21.1448   12.5726 H     992  UNL992      0.1146
   3967 H          14.9101   19.9295   12.7083 H     992  UNL992      0.1146
   3968 H          15.0252   21.2297   13.6806 H     992  UNL992      0.1146
   3969 N          14.3619   20.6368   15.4685 N.3   993  UNL993     -0.3437
   3970 H          13.8203   20.9435   16.2753 H     993  UNL993      0.1146
   3971 H          14.9699   21.4175   15.2251 H     993  UNL993      0.1146
   3972 H          14.9761   19.8975   15.8071 H     993  UNL993      0.1146
   3973 N          14.3379   20.5872   18.1587 N.3   994  UNL994     -0.3437
   3974 H          13.8937   21.2369   18.8061 H     994  UNL994      0.1146
   3975 H          15.0244   21.1330   17.6399 H     994  UNL994      0.1146
   3976 H          14.8723   19.9382   18.7346 H     994  UNL994      0.1146
   3977 N          14.3616   20.5547   20.8032 N.3   995  UNL995     -0.3437
   3978 H          13.8234   21.1050   21.4710 H     995  UNL995      0.1146
   3979 H          14.9187   21.2231   20.2728 H     995  UNL995      0.1146
   3980 H          15.0245   20.0126   21.3556 H     995  UNL995      0.1146
   3981 N          14.3412   20.5720   23.4494 N.3   996  UNL996     -0.3437
   3982 H          13.8800   21.2325   24.0734 H     996  UNL996      0.1146
   3983 H          14.9992   21.1200   22.8970 H     996  UNL996      0.1146
   3984 H          14.9078   19.9708   24.0460 H     996  UNL996      0.1146
   3985 N          14.3307   20.5759   26.0994 N.3   997  UNL997     -0.3437
   3986 H          13.9117   21.2342   26.7548 H     997  UNL997      0.1146
   3987 H          14.9633   21.1231   25.5174 H     997  UNL997      0.1146
   3988 H          14.9226   19.9622   26.6575 H     997  UNL997      0.1146
   3989 N          14.3351   20.5518   28.7603 N.3   998  UNL998     -0.3437
   3990 H          13.8969   21.2753   29.3286 H     998  UNL998      0.1146
   3991 H          14.9537   21.0389   28.1134 H     998  UNL998      0.1146
   3992 H          14.9425   20.0295   29.3901 H     998  UNL998      0.1146
   3993 N          14.3457   20.5487   31.3906 N.3   999  UNL999     -0.3437
   3994 H          13.8650   21.2553   31.9457 H     999  UNL999      0.1146
   3995 H          14.9809   21.0575   30.7774 H     999  UNL999      0.1146
   3996 H          14.9365   20.0339   32.0420 H     999  UNL999      0.1146
   3997 N          14.2991   20.8916   34.2500 N.3   1000  UNL1000    -0.3437
   3998 H          14.8061   20.5588   35.0688 H     1000  UNL1000     0.1146
   3999 H          14.9825   21.3857   33.6780 H     1000  UNL1000     0.1146
   4000 H          14.0405   20.0592   33.7222 H     1000  UNL1000     0.1146
   4001 N          14.3371   23.3870   -0.3086 N.3   1001  UNL1001    -0.3437
   4002 H          13.8917   24.0679    0.3050 H     1001  UNL1001     0.1146
   4003 H          14.9826   23.9159   -0.8934 H     1001  UNL1001     0.1146
   4004 H          14.9169   22.8037    0.2931 H     1001  UNL1001     0.1146
   4005 N          14.3503   23.3856    2.3184 N.3   1002  UNL1002    -0.3437
   4006 H          13.8514   23.9827    2.9764 H     1002  UNL1002     0.1146
   4007 H          14.9587   24.0039    1.7836 H     1002  UNL1002     0.1146
   4008 H          14.9678   22.8022    2.8811 H     1002  UNL1002     0.1146
   4009 N          14.3583   23.3343    5.0151 N.3   1003  UNL1003    -0.3437
   4010 H          13.8344   24.0442    5.5250 H     1003  UNL1003     0.1146
   4011 H          14.8954   23.8349    4.3086 H     1003  UNL1003     0.1146
   4012 H          15.0401   22.9611    5.6740 H     1003  UNL1003     0.1146
   4013 N          14.3383   23.4109    7.5920 N.3   1004  UNL1004    -0.3437
   4014 H          13.8870   23.9724    8.3126 H     1004  UNL1004     0.1146
   4015 H          14.9665   24.0420    7.0965 H     1004  UNL1004     0.1146
   4016 H          14.9364   22.7492    8.0849 H     1004  UNL1004     0.1146
   4017 N          14.3343   23.3854   10.2599 N.3   1005  UNL1005    -0.3437
   4018 H          13.8996   24.0620   10.8857 H     1005  UNL1005     0.1146
   4019 H          14.9592   23.9202    9.6583 H     1005  UNL1005     0.1146
   4020 H          14.9352   22.8070   10.8454 H     1005  UNL1005     0.1146
   4021 N          14.3546   23.3754   12.8871 N.3   1006  UNL1006    -0.3437
   4022 H          13.8400   23.9768   13.5287 H     1006  UNL1006     0.1146
   4023 H          14.9432   23.9951   12.3321 H     1006  UNL1006     0.1146
   4024 H          14.9904   22.8272   13.4648 H     1006  UNL1006     0.1146
   4025 N          14.3426   23.3784   15.5385 N.3   1007  UNL1007    -0.3437
   4026 H          13.8742   24.0582   16.1358 H     1007  UNL1007     0.1146
   4027 H          14.9763   23.9139   14.9468 H     1007  UNL1007     0.1146
   4028 H          14.9351   22.8240   16.1549 H     1007  UNL1007     0.1146
   4029 N          14.3316   23.4201   18.1562 N.3   1008  UNL1008    -0.3437
   4030 H          13.9112   24.0164   18.8675 H     1008  UNL1008     0.1146
   4031 H          14.9973   24.0069   17.6554 H     1008  UNL1008     0.1146
   4032 H          14.8881   22.7312   18.6602 H     1008  UNL1008     0.1146
   4033 N          14.7686   23.5534   21.1526 N.3   1009  UNL1009    -0.3437
   4034 H          14.3253   22.6360   21.1376 H     1009  UNL1009     0.1146
   4035 H          14.9924   23.7731   20.1830 H     1009  UNL1009     0.1146
   4036 H          14.0420   24.2120   21.4293 H     1009  UNL1009     0.1146
   4037 N          14.3491   23.4145   23.4235 N.3   1010  UNL1010    -0.3437
   4038 H          13.8549   23.9106   24.1638 H     1010  UNL1010     0.1146
   4039 H          14.9626   24.1009   22.9865 H     1010  UNL1010     0.1146
   4040 H          14.9616   22.7485   23.8920 H     1010  UNL1010     0.1146
   4041 N          14.3426   23.3870   26.0931 N.3   1011  UNL1011    -0.3437
   4042 H          13.8740   24.0242   26.7355 H     1011  UNL1011     0.1146
   4043 H          14.9677   23.9636   25.5316 H     1011  UNL1011     0.1146
   4044 H          14.9440   22.7996   26.6689 H     1011  UNL1011     0.1146
   4045 N          14.3544   23.3826   28.7251 N.3   1012  UNL1012    -0.3437
   4046 H          13.8402   23.9662   29.3835 H     1012  UNL1012     0.1146
   4047 H          14.9520   24.0159   28.1957 H     1012  UNL1012     0.1146
   4048 H          14.9815   22.8097   29.2881 H     1012  UNL1012     0.1146
   4049 N          14.3312   23.3952   31.3808 N.3   1013  UNL1013    -0.3437
   4050 H          13.9095   24.0203   32.0661 H     1013  UNL1013     0.1146
   4051 H          14.9354   23.9781   30.8032 H     1013  UNL1013     0.1146
   4052 H          14.9521   22.7808   31.9056 H     1013  UNL1013     0.1146
   4053 N          14.4050   23.8012   34.2496 N.3   1014  UNL1014    -0.3437
   4054 H          13.7830   23.1830   33.7307 H     1014  UNL1014     0.1146
   4055 H          14.7049   23.2748   35.0689 H     1014  UNL1014     0.1146
   4056 H          15.2352   23.9155   33.6699 H     1014  UNL1014     0.1146
   4057 N          14.3283   26.2298   -0.3183 N.3   1015  UNL1015    -0.3437
   4058 H          13.9229   26.8867    0.3469 H     1015  UNL1015     0.1146
   4059 H          15.0002   26.7644   -0.8670 H     1015  UNL1015     0.1146
   4060 H          14.8767   25.5726    0.2345 H     1015  UNL1015     0.1146
   4061 N          14.7283   26.2677    2.6892 N.3   1016  UNL1016    -0.3437
   4062 H          14.3476   25.5146    2.1179 H     1016  UNL1016     0.1146
   4063 H          15.1260   26.9418    2.0366 H     1016  UNL1016     0.1146
   4064 H          13.9263   26.7295    3.1158 H     1016  UNL1016     0.1146
   4065 N          14.3581   26.4824    5.3380 N.3   1017  UNL1017    -0.3437
   4066 H          13.8451   25.8929    4.6840 H     1017  UNL1017     0.1146
   4067 H          15.0926   25.8944    5.7295 H     1017  UNL1017     0.1146
   4068 H          14.8324   27.1840    4.7712 H     1017  UNL1017     0.1146
   4069 N          14.3492   26.4933    7.9640 N.3   1018  UNL1018    -0.3437
   4070 H          13.8568   26.0542    7.1874 H     1018  UNL1018     0.1146
   4071 H          14.9133   25.7592    8.3899 H     1018  UNL1018     0.1146
   4072 H          15.0090   27.1468    7.5447 H     1018  UNL1018     0.1146
   4073 N          14.3208   26.2855   10.2208 N.3   1019  UNL1019    -0.3437
   4074 H          13.9457   26.6744   11.0848 H     1019  UNL1019     0.1146
   4075 H          14.9519   26.9921    9.8456 H     1019  UNL1019     0.1146
   4076 H          14.9098   25.5016   10.4981 H     1019  UNL1019     0.1146
   4077 N          14.3336   26.5082   13.2176 N.3   1020  UNL1020    -0.3437
   4078 H          13.9050   25.8320   12.5872 H     1020  UNL1020     0.1146
   4079 H          15.0032   25.9838   13.7789 H     1020  UNL1020     0.1146
   4080 H          14.8865   27.1297   12.6290 H     1020  UNL1020     0.1146
   4081 N          14.3458   26.4648   15.8999 N.3   1021  UNL1021    -0.3437
   4082 H          13.8647   26.0402   15.1083 H     1021  UNL1021     0.1146
   4083 H          14.9799   25.7521   16.2583 H     1021  UNL1021     0.1146
   4084 H          14.9377   27.1965   15.5093 H     1021  UNL1021     0.1146
   4085 N          14.3553   26.2559   18.1237 N.3   1022  UNL1022    -0.3437
   4086 H          13.8409   26.7284   18.8656 H     1022  UNL1022     0.1146
   4087 H          15.0247   26.9370   17.7683 H     1022  UNL1022     0.1146
   4088 H          14.9074   25.5322   18.5816 H     1022  UNL1022     0.1146
   4089 N          14.3429   26.2056   20.8123 N.3   1023  UNL1023    -0.3437
   4090 H          13.8731   26.8457   21.4510 H     1023  UNL1023     0.1146
   4091 H          14.9672   26.7800   20.2477 H     1023  UNL1023     0.1146
   4092 H          14.9450   25.6223   21.3915 H     1023  UNL1023     0.1146
   4093 N          14.3371   26.2191   23.4475 N.3   1024  UNL1024    -0.3437
   4094 H          13.8917   26.8519   24.1105 H     1024  UNL1024     0.1146
   4095 H          14.9826   26.7904   22.9041 H     1024  UNL1024     0.1146
   4096 H          14.9169   25.5922   24.0036 H     1024  UNL1024     0.1146
   4097 N          14.3319   26.2163   26.0971 N.3   1025  UNL1025    -0.3437
   4098 H          13.9085   26.8825   26.7415 H     1025  UNL1025     0.1146
   4099 H          14.9789   26.7540   25.5221 H     1025  UNL1025     0.1146
   4100 H          14.9090   25.6008   26.6685 H     1025  UNL1025     0.1146
   4101 N          14.3282   26.2180   28.7410 N.3   1026  UNL1026    -0.3437
   4102 H          13.9199   26.8739   29.4054 H     1026  UNL1026     0.1146
   4103 H          14.9589   26.7656   28.1573 H     1026  UNL1026     0.1146
   4104 H          14.9212   25.5961   29.2886 H     1026  UNL1026     0.1146
   4105 N          14.3282   26.2302   31.3714 N.3   1027  UNL1027    -0.3437
   4106 H          13.9199   26.8343   32.0832 H     1027  UNL1027     0.1146
   4107 H          14.9589   26.8201   30.8305 H     1027  UNL1027     0.1146
   4108 H          14.9212   25.5689   31.8707 H     1027  UNL1027     0.1146
   4109 N          14.3655   26.5754   34.3010 N.3   1028  UNL1028    -0.3437
   4110 H          13.8313   25.9510   33.6984 H     1028  UNL1028     0.1146
   4111 H          14.8131   25.9799   34.9963 H     1028  UNL1028     0.1146
   4112 H          15.1183   26.9472   33.7234 H     1028  UNL1028     0.1146
   4113 N          14.3302   30.0627   -0.3302 N.3   1029  UNL1029    -0.3437
   4114 H          13.9228   30.7082    0.3450 H     1029  UNL1029     0.1146
   4115 H          15.0383   30.5940   -0.8349 H     1029  UNL1029     0.1146
   4116 H          14.8370   29.3677    0.2162 H     1029  UNL1029     0.1146
   4117 N          14.3922   30.0515    2.2652 N.3   1030  UNL1030    -0.3437
   4118 H          13.7511   30.4263    2.9629 H     1030  UNL1030     0.1146
   4119 H          14.9700   30.8353    1.9648 H     1030  UNL1030     0.1146
   4120 H          15.0148   29.4196    2.7666 H     1030  UNL1030     0.1146
   4121 N          14.2916   30.1552    4.9610 N.3   1031  UNL1031    -0.3437
   4122 H          14.0715   30.4521    5.9106 H     1031  UNL1031     0.1146
   4123 H          14.9524   30.8410    4.5984 H     1031  UNL1031     0.1146
   4124 H          14.8127   29.2843    5.0527 H     1031  UNL1031     0.1146
   4125 N          14.2428   29.1231    7.7605 N.3   1032  UNL1032    -0.3437
   4126 H          14.4353   30.1200    7.8479 H     1032  UNL1032     0.1146
   4127 H          14.7419   28.8126    6.9281 H     1032  UNL1032     0.1146
   4128 H          14.7082   28.6770    8.5496 H     1032  UNL1032     0.1146
   4129 N          14.3545   30.1014   10.1905 N.3   1033  UNL1033    -0.3437
   4130 H          13.8412   30.4602   10.9944 H     1033  UNL1033     0.1146
   4131 H          15.0069   30.8371    9.9227 H     1033  UNL1033     0.1146
   4132 H          14.9256   29.3340   10.5416 H     1033  UNL1033     0.1146
   4133 N          14.3545   30.1014   12.8314 N.3   1034  UNL1034    -0.3437
   4134 H          13.8412   30.4602   13.6352 H     1034  UNL1034     0.1146
   4135 H          15.0069   30.8371   12.5636 H     1034  UNL1034     0.1146
   4136 H          14.9256   29.3340   13.1825 H     1034  UNL1034     0.1146
   4137 N          14.3545   30.1014   15.4722 N.3   1035  UNL1035    -0.3437
   4138 H          13.8412   30.4602   16.2761 H     1035  UNL1035     0.1146
   4139 H          15.0069   30.8371   15.2044 H     1035  UNL1035     0.1146
   4140 H          14.9256   29.3340   15.8233 H     1035  UNL1035     0.1146
   4141 N          14.3231   30.1019   18.1421 N.3   1036  UNL1036    -0.3437
   4142 H          13.9417   30.5718   18.9619 H     1036  UNL1036     0.1146
   4143 H          15.0016   30.7466   17.7391 H     1036  UNL1036     0.1146
   4144 H          14.8617   29.3125   18.4960 H     1036  UNL1036     0.1146
   4145 N          14.5600   29.1117   20.6902 N.3   1037  UNL1037    -0.3437
   4146 H          13.7299   28.7049   21.1190 H     1037  UNL1037     0.1146
   4147 H          14.4892   30.1172   20.8396 H     1037  UNL1037     0.1146
   4148 H          15.3492   28.7989   21.2538 H     1037  UNL1037     0.1146
   4149 N          14.4167   28.9886   23.4261 N.3   1038  UNL1038    -0.3437
   4150 H          13.8180   29.1515   24.2345 H     1038  UNL1038     0.1146
   4151 H          14.5769   29.9032   23.0063 H     1038  UNL1038     0.1146
   4152 H          15.3166   28.6893   23.7989 H     1038  UNL1038     0.1146
   4153 N          14.3545   30.1014   26.0355 N.3   1039  UNL1039    -0.3437
   4154 H          13.8412   30.4602   26.8394 H     1039  UNL1039     0.1146
   4155 H          15.0069   30.8371   25.7677 H     1039  UNL1039     0.1146
   4156 H          14.9256   29.3340   26.3866 H     1039  UNL1039     0.1146
   4157 N          14.3542   30.1018   28.6765 N.3   1040  UNL1040    -0.3437
   4158 H          13.8425   30.4658   29.4790 H     1040  UNL1040     0.1146
   4159 H          15.0108   30.8330   28.4069 H     1040  UNL1040     0.1146
   4160 H          14.9206   29.3321   29.0300 H     1040  UNL1040     0.1146
   4161 N          14.3163   30.1396   31.3417 N.3   1041  UNL1041    -0.3437
   4162 H          13.9663   30.4557   32.2449 H     1041  UNL1041     0.1146
   4163 H          14.9901   30.8420   31.0400 H     1041  UNL1041     0.1146
   4164 H          14.8555   29.2955   31.5291 H     1041  UNL1041     0.1146
   4165 N          14.2481   29.2391   34.2400 N.3   1042  UNL1042    -0.3437
   4166 H          14.7942   30.0868   34.0934 H     1042  UNL1042     0.1146
   4167 H          14.3694   28.6778   33.3981 H     1042  UNL1042     0.1146
   4168 H          14.7165   28.7289   34.9875 H     1042  UNL1042     0.1146
   4169 N          16.8857    1.1763   -0.0123 N.3   1043  UNL1043    -0.3437
   4170 H          16.3730    0.4717   -0.5405 H     1043  UNL1043     0.1146
   4171 H          17.4890    0.6631    0.6288 H     1043  UNL1043     0.1146
   4172 H          17.5073    1.6306   -0.6799 H     1043  UNL1043     0.1146
   4173 N          16.9036    1.1486    2.6772 N.3   1044  UNL1044    -0.3437
   4174 H          16.3359    0.7048    1.9567 H     1044  UNL1044     0.1146
   4175 H          17.4069    0.3945    3.1424 H     1044  UNL1044     0.1146
   4176 H          17.6086    1.6938    2.1832 H     1044  UNL1044     0.1146
   4177 N          16.9401    1.0971    5.3748 N.3   1045  UNL1045    -0.3437
   4178 H          16.2531    0.7314    4.7170 H     1045  UNL1045     0.1146
   4179 H          17.5773    0.3269    5.5727 H     1045  UNL1045     0.1146
   4180 H          17.4845    1.7863    4.8582 H     1045  UNL1045     0.1146
   4181 N          16.9709    1.1377    8.0072 N.3   1046  UNL1046    -0.3437
   4182 H          16.2628    1.0707    7.2776 H     1046  UNL1046     0.1146
   4183 H          17.2314    0.1792    8.2348 H     1046  UNL1046     0.1146
   4184 H          17.7899    1.5541    7.5665 H     1046  UNL1046     0.1146
   4185 N          16.8438    0.9661   10.2159 N.3   1047  UNL1047    -0.3437
   4186 H          16.5233    0.8629   11.1776 H     1047  UNL1047     0.1146
   4187 H          17.3300    1.8607   10.1762 H     1047  UNL1047     0.1146
   4188 H          17.5579    0.2520   10.0796 H     1047  UNL1047     0.1146
   4189 N          16.8538    1.1826   13.1197 N.3   1048  UNL1048    -0.3437
   4190 H          16.4758    0.3221   12.7259 H     1048  UNL1048     0.1146
   4191 H          17.4031    0.9026   13.9311 H     1048  UNL1048     0.1146
   4192 H          17.5223    1.5344   12.4359 H     1048  UNL1048     0.1146
   4193 N          16.8744    1.1517   15.8485 N.3   1049  UNL1049    -0.3437
   4194 H          16.4095    0.5621   15.1597 H     1049  UNL1049     0.1146
   4195 H          17.4168    0.5214   16.4375 H     1049  UNL1049     0.1146
   4196 H          17.5542    1.7064   15.3303 H     1049  UNL1049     0.1146
   4197 N          16.8651    1.1522   18.4766 N.3   1050  UNL1050    -0.3437
   4198 H          16.4341    0.4382   17.8911 H     1050  UNL1050     0.1146
   4199 H          17.4885    0.6559   19.1118 H     1050  UNL1050     0.1146
   4200 H          17.4673    1.6954   17.8597 H     1050  UNL1050     0.1146
   4201 N          16.8617    1.1568   21.1067 N.3   1051  UNL1051    -0.3437
   4202 H          16.4500    0.4879   20.4574 H     1051  UNL1051     0.1146
   4203 H          17.4025    0.6060   21.7719 H     1051  UNL1051     0.1146
   4204 H          17.5408    1.6910   20.5666 H     1051  UNL1051     0.1146
   4205 N          16.9165    1.1457   23.8164 N.3   1052  UNL1052    -0.3437
   4206 H          16.2981    0.6386   23.1849 H     1052  UNL1052     0.1146
   4207 H          17.5208    0.4439   24.2414 H     1052  UNL1052     0.1146
   4208 H          17.5197    1.7135   23.2230 H     1052  UNL1052     0.1146
   4209 N          16.8288    0.8373   26.3584 N.3   1053  UNL1053    -0.3437
   4210 H          16.5827    1.5372   25.6599 H     1053  UNL1053     0.1146
   4211 H          17.5175    0.2298   25.9169 H     1053  UNL1053     0.1146
   4212 H          17.3261    1.3374   27.0940 H     1053  UNL1053     0.1146
   4213 N          16.9375    1.1006   29.1393 N.3   1054  UNL1054    -0.3437
   4214 H          16.3112    1.0857   28.3357 H     1054  UNL1054     0.1146
   4215 H          17.2426    0.1379   29.2755 H     1054  UNL1054     0.1146
   4216 H          17.7638    1.6175   28.8419 H     1054  UNL1054     0.1146
   4217 N          15.3119    0.9507   31.6958 N.3   1055  UNL1055    -0.3437
   4218 H          14.5256    1.2596   32.2655 H     1055  UNL1055     0.1146
   4219 H          15.0088    0.0902   31.2417 H     1055  UNL1055     0.1146
   4220 H          15.4088    1.6412   30.9527 H     1055  UNL1055     0.1146
   4221 N          16.8369   -0.8331   34.1254 N.3   1056  UNL1056    -0.3437
   4222 H          16.6790   -1.7770   33.7755 H     1056  UNL1056     0.1146
   4223 H          17.0332   -0.9315   35.1205 H     1056  UNL1056     0.1146
   4224 H          17.7059   -0.5167   33.6977 H     1056  UNL1056     0.1146
   4225 N          16.8687    3.6250   -0.2809 N.3   1057  UNL1057    -0.3437
   4226 H          16.4228    4.3792    0.2394 H     1057  UNL1057     0.1146
   4227 H          17.4942    4.0753   -0.9475 H     1057  UNL1057     0.1146
   4228 H          17.4694    3.1412    0.3851 H     1057  UNL1057     0.1146
   4229 N          16.8856    3.9794    2.6489 N.3   1058  UNL1058    -0.3437
   4230 H          16.3734    3.3406    2.0423 H     1058  UNL1058     0.1146
   4231 H          17.4860    3.3951    3.2290 H     1058  UNL1058     0.1146
   4232 H          17.5100    4.5056    2.0393 H     1058  UNL1058     0.1146
   4233 N          16.8852    3.9170    5.3380 N.3   1059  UNL1059    -0.3437
   4234 H          16.3751    3.4608    4.5830 H     1059  UNL1059     0.1146
   4235 H          17.5272    3.2166    5.7065 H     1059  UNL1059     0.1146
   4236 H          17.4675    4.6263    4.8952 H     1059  UNL1059     0.1146
   4237 N          16.8919    3.6522    7.5860 N.3   1060  UNL1060    -0.3437
   4238 H          16.3566    4.2151    8.2456 H     1060  UNL1060     0.1146
   4239 H          17.5136    4.2998    7.1039 H     1060  UNL1060     0.1146
   4240 H          17.4929    3.0536    8.1506 H     1060  UNL1060     0.1146
   4241 N          16.8992    3.9834   10.5812 N.3   1061  UNL1061    -0.3437
   4242 H          16.3379    3.3696    9.9927 H     1061  UNL1061     0.1146
   4243 H          17.5054    3.3724   11.1267 H     1061  UNL1061     0.1146
   4244 H          17.5125    4.4954    9.9486 H     1061  UNL1061     0.1146
   4245 N          16.8732    3.6882   12.8598 N.3   1062  UNL1062    -0.3437
   4246 H          16.4087    4.1570   13.6362 H     1062  UNL1062     0.1146
   4247 H          17.4860    4.3843   12.4375 H     1062  UNL1062     0.1146
   4248 H          17.4870    2.9913   13.2791 H     1062  UNL1062     0.1146
   4249 N          16.8689    3.9240   15.8818 N.3   1063  UNL1063    -0.3437
   4250 H          16.4222    3.4184   15.1181 H     1063  UNL1063     0.1146
   4251 H          17.4945    3.2574   16.3321 H     1063  UNL1063     0.1146
   4252 H          17.4694    4.6210   15.4439 H     1063  UNL1063     0.1146
   4253 N          16.9145    3.6523   18.1306 N.3   1064  UNL1064    -0.3437
   4254 H          16.3067    4.2168   18.7224 H     1064  UNL1064     0.1146
   4255 H          17.5895    4.2983   17.7239 H     1064  UNL1064     0.1146
   4256 H          17.4443    3.0534   18.7623 H     1064  UNL1064     0.1146
   4257 N          16.8537    3.6476   20.8399 N.3   1065  UNL1065    -0.3437
   4258 H          16.4726    4.3669   21.4529 H     1065  UNL1065     0.1146
   4259 H          17.4674    4.1320   20.1863 H     1065  UNL1065     0.1146
   4260 H          17.4613    3.0743   21.4234 H     1065  UNL1065     0.1146
   4261 N          16.8997    3.6139   23.4620 N.3   1066  UNL1066    -0.3437
   4262 H          16.3377    4.3025   23.9603 H     1066  UNL1066     0.1146
   4263 H          17.5413    4.1461   22.8758 H     1066  UNL1066     0.1146
   4264 H          17.4764    3.1582   24.1677 H     1066  UNL1066     0.1146
   4265 N          16.8374    3.7770   26.4453 N.3   1067  UNL1067    -0.3437
   4266 H          16.5506    3.7067   25.4701 H     1067  UNL1067     0.1146
   4267 H          17.5529    3.0639   26.5797 H     1067  UNL1067     0.1146
   4268 H          17.3142    4.6732   26.5340 H     1067  UNL1067     0.1146
   4269 N          16.8216    3.8725   28.7426 N.3   1068  UNL1068    -0.3437
   4270 H          16.7030    3.0377   29.3148 H     1068  UNL1068     0.1146
   4271 H          17.0978    4.6153   29.3833 H     1068  UNL1068     0.1146
   4272 H          17.6326    3.6953   28.1518 H     1068  UNL1068     0.1146
   4273 N          16.8147    3.9109   31.4198 N.3   1069  UNL1069    -0.3437
   4274 H          16.6484    3.1296   32.0526 H     1069  UNL1069     0.1146
   4275 H          17.3193    4.6098   31.9632 H     1069  UNL1069     0.1146
   4276 H          17.4727    3.5704   30.7201 H     1069  UNL1069     0.1146
   4277 N          17.1099    1.5143   34.2046 N.3   1070  UNL1070    -0.3437
   4278 H          16.2342    1.7354   33.7328 H     1070  UNL1070     0.1146
   4279 H          17.8414    1.9856   33.6744 H     1070  UNL1070     0.1146
   4280 H          17.0695    1.9854   35.1072 H     1070  UNL1070     0.1146
   4281 N          16.9123    6.4918   -0.3671 N.3   1071  UNL1071    -0.3437
   4282 H          16.3096    6.9840    0.2908 H     1071  UNL1071     0.1146
   4283 H          17.5716    7.1855   -0.7172 H     1071  UNL1071     0.1146
   4284 H          17.4614    5.8384    0.1896 H     1071  UNL1071     0.1146
   4285 N          16.8264    6.7897    2.5526 N.3   1072  UNL1072    -0.3437
   4286 H          17.6654    7.3483    2.4027 H     1072  UNL1072     0.1146
   4287 H          16.7066    6.2309    1.7089 H     1072  UNL1072     0.1146
   4288 H          17.0565    6.1310    3.2953 H     1072  UNL1072     0.1146
   4289 N          16.8876    6.8176    5.2694 N.3   1073  UNL1073    -0.3437
   4290 H          16.3765    6.0283    4.8767 H     1073  UNL1073     0.1146
   4291 H          17.5947    6.4165    5.8840 H     1073  UNL1073     0.1146
   4292 H          17.3962    7.2374    4.4926 H     1073  UNL1073     0.1146
   4293 N          16.8819    6.7217    7.9835 N.3   1074  UNL1074    -0.3437
   4294 H          16.3851    6.2956    7.2025 H     1074  UNL1074     0.1146
   4295 H          17.5374    6.0167    8.3177 H     1074  UNL1074     0.1146
   4296 H          17.4505    7.4660    7.5822 H     1074  UNL1074     0.1146
   4297 N          16.8924    6.4477   10.2492 N.3   1075  UNL1075    -0.3437
   4298 H          16.3551    7.0852   10.8351 H     1075  UNL1075     0.1146
   4299 H          17.5043    7.0344    9.6836 H     1075  UNL1075     0.1146
   4300 H          17.5033    5.9325   10.8815 H     1075  UNL1075     0.1146
   4301 N          16.8514    6.7719   13.1970 N.3   1076  UNL1076    -0.3437
   4302 H          16.4809    6.0882   12.5384 H     1076  UNL1076     0.1146
   4303 H          17.4660    6.2540   13.8235 H     1076  UNL1076     0.1146
   4304 H          17.4567    7.3858   12.6538 H     1076  UNL1076     0.1146
   4305 N          16.8742    6.7560   15.8791 N.3   1077  UNL1077    -0.3437
   4306 H          16.4079    6.1759   15.1831 H     1077  UNL1077     0.1146
   4307 H          17.5339    6.1446   16.3580 H     1077  UNL1077     0.1146
   4308 H          17.4390    7.4234   15.3557 H     1077  UNL1077     0.1146
   4309 N          16.8547    6.5340   18.1467 N.3   1078  UNL1078    -0.3437
   4310 H          16.4695    6.9733   18.9816 H     1078  UNL1078     0.1146
   4311 H          17.4851    7.2199   17.7338 H     1078  UNL1078     0.1146
   4312 H          17.4457    5.7726   18.4772 H     1078  UNL1078     0.1146
   4313 N          17.2909    6.5675   21.1558 N.3   1079  UNL1079    -0.3437
   4314 H          17.5180    7.2604   20.4440 H     1079  UNL1079     0.1146
   4315 H          16.4771    6.9296   21.6508 H     1079  UNL1079     0.1146
   4316 H          16.9690    5.7424   20.6520 H     1079  UNL1079     0.1146
   4317 N          16.9015    6.7540   23.8272 N.3   1080  UNL1080    -0.3437
   4318 H          17.6437    6.1671   24.2054 H     1080  UNL1080     0.1146
   4319 H          17.3601    7.4273   23.2150 H     1080  UNL1080     0.1146
   4320 H          16.3497    6.1514   23.2182 H     1080  UNL1080     0.1146
   4321 N          16.8642    6.7922   26.3973 N.3   1081  UNL1081    -0.3437
   4322 H          16.4374    6.0608   25.8306 H     1081  UNL1081     0.1146
   4323 H          17.4992    6.3170   27.0372 H     1081  UNL1081     0.1146
   4324 H          17.4543    7.3299   25.7640 H     1081  UNL1081     0.1146
   4325 N          16.8696    6.7638   29.0725 N.3   1082  UNL1082    -0.3437
   4326 H          16.4239    6.1174   28.4229 H     1082  UNL1082     0.1146
   4327 H          17.5467    6.2122   29.5975 H     1082  UNL1082     0.1146
   4328 H          17.4148    7.4064   28.4996 H     1082  UNL1082     0.1146
   4329 N          14.8872    6.8147   31.6811 N.3   1083  UNL1083    -0.3437
   4330 H          15.4782    6.2770   32.3135 H     1083  UNL1083     0.1146
   4331 H          15.5203    7.2772   31.0301 H     1083  UNL1083     0.1146
   4332 H          14.3692    6.1310   31.1311 H     1083  UNL1083     0.1146
   4333 N          16.9031    4.3851   34.2434 N.3   1084  UNL1084    -0.3437
   4334 H          16.3946    5.0605   33.6745 H     1084  UNL1084     0.1146
   4335 H          17.7525    4.1646   33.7254 H     1084  UNL1084     0.1146
   4336 H          17.2049    4.8896   35.0757 H     1084  UNL1084     0.1146
   4337 N          16.9174    9.3305   -0.3810 N.3   1085  UNL1085    -0.3437
   4338 H          16.3115    9.8492    0.2532 H     1085  UNL1085     0.1146
   4339 H          17.6504    9.9799   -0.6631 H     1085  UNL1085     0.1146
   4340 H          17.3757    8.6194    0.1870 H     1085  UNL1085     0.1146
   4341 N          17.2515    9.5888    2.3127 N.3   1086  UNL1086    -0.3437
   4342 H          17.7268    9.0028    2.9976 H     1086  UNL1086     0.1146
   4343 H          16.6233    8.9703    1.8016 H     1086  UNL1086     0.1146
   4344 H          16.6534   10.2171    2.8475 H     1086  UNL1086     0.1146
   4345 N          16.8823    9.2745    4.9711 N.3   1087  UNL1087    -0.3437
   4346 H          17.5969    8.7380    5.4608 H     1087  UNL1087     0.1146
   4347 H          16.3927    9.8094    5.6870 H     1087  UNL1087     0.1146
   4348 H          17.3831    9.9571    4.4039 H     1087  UNL1087     0.1146
   4349 N          16.8912    9.6320    7.9216 N.3   1088  UNL1088    -0.3437
   4350 H          16.3598    8.9164    7.4278 H     1088  UNL1088     0.1146
   4351 H          17.5458    9.1320    8.5216 H     1088  UNL1088     0.1146
   4352 H          17.4582   10.0986    7.2150 H     1088  UNL1088     0.1146
   4353 N          16.8558    9.5867   10.5672 N.3   1089  UNL1089    -0.3437
   4354 H          16.4665    8.9093    9.9129 H     1089  UNL1089     0.1146
   4355 H          17.5016    9.0663   11.1592 H     1089  UNL1089     0.1146
   4356 H          17.4311   10.2167   10.0100 H     1089  UNL1089     0.1146
   4357 N          16.8772    9.6033   13.2188 N.3   1090  UNL1090    -0.3437
   4358 H          16.3972    8.9608   12.5902 H     1090  UNL1090     0.1146
   4359 H          17.5101    9.0310   13.7759 H     1090  UNL1090     0.1146
   4360 H          17.4704   10.1839   12.6277 H     1090  UNL1090     0.1146
   4361 N          16.8748    9.5807   15.8761 N.3   1091  UNL1091    -0.3437
   4362 H          16.4041    9.0403   15.1517 H     1091  UNL1091     0.1146
   4363 H          17.4878    8.9267   16.3608 H     1091  UNL1091     0.1146
   4364 H          17.4883   10.2311   15.3874 H     1091  UNL1091     0.1146
   4365 N          16.9069    9.3123   18.1221 N.3   1092  UNL1092    -0.3437
   4366 H          16.3195    9.7515   18.8294 H     1092  UNL1092     0.1146
   4367 H          17.5136   10.0486   17.7641 H     1092  UNL1092     0.1146
   4368 H          17.5150    8.6665   18.6235 H     1092  UNL1092     0.1146
   4369 N          17.2387    9.3142   20.7763 N.3   1093  UNL1093    -0.3437
   4370 H          16.2661    9.0200   20.6999 H     1093  UNL1093     0.1146
   4371 H          17.2326   10.3296   20.6904 H     1093  UNL1093     0.1146
   4372 H          17.5177    9.1152   21.7360 H     1093  UNL1093     0.1146
   4373 N          16.9028    9.5972   23.8120 N.3   1094  UNL1094    -0.3437
   4374 H          16.3296    9.0571   23.1654 H     1094  UNL1094     0.1146
   4375 H          17.5320    8.9291   24.2549 H     1094  UNL1094     0.1146
   4376 H          17.4907   10.1956   23.2336 H     1094  UNL1094     0.1146
   4377 N          16.8628    9.6018   26.4067 N.3   1095  UNL1095    -0.3437
   4378 H          16.4416    8.9370   25.7594 H     1095  UNL1095     0.1146
   4379 H          17.4686    9.0546   27.0166 H     1095  UNL1095     0.1146
   4380 H          17.4821   10.1856   25.8464 H     1095  UNL1095     0.1146
   4381 N          16.8781    9.6100   29.0581 N.3   1096  UNL1096    -0.3437
   4382 H          16.3944    8.9770   28.4227 H     1096  UNL1096     0.1146
   4383 H          17.4804    9.0236   29.6342 H     1096  UNL1096     0.1146
   4384 H          17.5021   10.1683   28.4774 H     1096  UNL1096     0.1146
   4385 N          16.8669    9.5826   31.7111 N.3   1097  UNL1097    -0.3437
   4386 H          17.5458    9.0409   32.2442 H     1097  UNL1097     0.1146
   4387 H          17.4096   10.2275   31.1384 H     1097  UNL1097     0.1146
   4388 H          16.4327    8.9280   31.0620 H     1097  UNL1097     0.1146
   4389 N          16.8706    7.2268   34.2305 N.3   1098  UNL1098    -0.3437
   4390 H          16.5262    7.9096   33.5571 H     1098  UNL1098     0.1146
   4391 H          17.7577    6.8892   33.8595 H     1098  UNL1098     0.1146
   4392 H          17.1005    7.7534   35.0720 H     1098  UNL1098     0.1146
   4393 N          16.8313   12.2212    0.6672 N.3   1099  UNL1099    -0.3437
   4394 H          17.5234   12.8504    1.0715 H     1099  UNL1099     0.1146
   4395 H          16.5720   12.6282   -0.2303 H     1099  UNL1099     0.1146
   4396 H          17.3284   11.3583    0.4511 H     1099  UNL1099     0.1146
   4397 N          16.9340   12.1811    2.8785 N.3   1100  UNL1100    -0.3437
   4398 H          16.2814   12.2323    3.6595 H     1100  UNL1100     0.1146
   4399 H          17.3669   13.1013    2.8135 H     1100  UNL1100     0.1146
   4400 H          17.6728   11.5433    3.1712 H     1100  UNL1100     0.1146
   4401 N          16.8776   12.0658    5.6565 N.3   1101  UNL1101    -0.3437
   4402 H          16.4225   12.6984    6.3132 H     1101  UNL1101     0.1146
   4403 H          17.3083   12.6585    4.9483 H     1101  UNL1101     0.1146
   4404 H          17.6466   11.6354    6.1681 H     1101  UNL1101     0.1146
   4405 N          16.9115   12.0887    8.2299 N.3   1102  UNL1102    -0.3437
   4406 H          16.3176   12.5577    8.9123 H     1102  UNL1102     0.1146
   4407 H          17.4122   12.8277    7.7384 H     1102  UNL1102     0.1146
   4408 H          17.6138   11.5839    8.7687 H     1102  UNL1102     0.1146
   4409 N          16.8654   12.1058   10.9020 N.3   1103  UNL1103    -0.3437
   4410 H          16.4334   12.7881   11.5236 H     1103  UNL1103     0.1146
   4411 H          17.4913   12.6346   10.2962 H     1103  UNL1103     0.1146
   4412 H          17.4650   11.5296   11.4909 H     1103  UNL1103     0.1146
   4413 N          16.8725   12.0603   13.5987 N.3   1104  UNL1104    -0.3437
   4414 H          16.4321   12.7716   14.1804 H     1104  UNL1104     0.1146
   4415 H          17.3257   12.5620   12.8363 H     1104  UNL1104     0.1146
   4416 H          17.6247   11.6642   14.1605 H     1104  UNL1104     0.1146
   4417 N          16.8268   12.3460   16.6346 N.3   1105  UNL1105    -0.3437
   4418 H          16.6084   12.1642   15.6560 H     1105  UNL1105     0.1146
   4419 H          17.2597   11.4942   16.9887 H     1105  UNL1105     0.1146
   4420 H          17.5601   13.0536   16.6320 H     1105  UNL1105     0.1146
   4421 N          17.1382   12.3510   18.8460 N.3   1106  UNL1106    -0.3437
   4422 H          16.5074   13.0044   19.3080 H     1106  UNL1106     0.1146
   4423 H          17.9437   12.2544   19.4627 H     1106  UNL1106     0.1146
   4424 H          16.6657   11.4483   18.8578 H     1106  UNL1106     0.1146
   4425 N          16.8093   12.2128   21.7577 N.3   1107  UNL1107    -0.3437
   4426 H          17.2207   13.1122   22.0032 H     1107  UNL1107     0.1146
   4427 H          16.7032   12.2197   20.7443 H     1107  UNL1107     0.1146
   4428 H          17.5219   11.5133   21.9607 H     1107  UNL1107     0.1146
   4429 N          16.8718   12.1300   24.5804 N.3   1108  UNL1108    -0.3437
   4430 H          16.7664   13.1436   24.5782 H     1108  UNL1108     0.1146
   4431 H          16.7746   11.8354   23.6097 H     1108  UNL1108     0.1146
   4432 H          17.8423   11.9491   24.8329 H     1108  UNL1108     0.1146
   4433 N          16.8881   12.1314   26.7012 N.3   1109  UNL1109    -0.3437
   4434 H          16.3735   12.7247   27.3504 H     1109  UNL1109     0.1146
   4435 H          17.5858   12.7321   26.2644 H     1109  UNL1109     0.1146
   4436 H          17.4076   11.4700   27.2765 H     1109  UNL1109     0.1146
   4437 N          16.8560   12.0973   29.4115 N.3   1110  UNL1110    -0.3437
   4438 H          16.4813   12.7052   30.1384 H     1110  UNL1110     0.1146
   4439 H          17.3297   12.7101   28.7493 H     1110  UNL1110     0.1146
   4440 H          17.5880   11.5455   29.8566 H     1110  UNL1110     0.1146
   4441 N          17.0520    9.9692   34.1844 N.3   1111  UNL1111    -0.3437
   4442 H          16.2569   10.3877   33.7038 H     1111  UNL1111     0.1146
   4443 H          17.8832   10.3232   33.7131 H     1111  UNL1111     0.1146
   4444 H          17.0629   10.3779   35.1178 H     1111  UNL1111     0.1146
   4445 N          16.8708   15.0402   -0.3705 N.3   1112  UNL1112    -0.3437
   4446 H          16.4231   15.3473    0.4917 H     1112  UNL1112     0.1146
   4447 H          17.5668   15.7502   -0.5940 H     1112  UNL1112     0.1146
   4448 H          17.3944   14.1994   -0.1311 H     1112  UNL1112     0.1146
   4449 N          16.8195   14.9262    2.5422 N.3   1113  UNL1113    -0.3437
   4450 H          17.4642   14.9280    3.3313 H     1113  UNL1113     0.1146
   4451 H          16.6200   15.9049    2.3403 H     1113  UNL1113     0.1146
   4452 H          17.3513   14.5780    1.7457 H     1113  UNL1113     0.1146
   4453 N          16.9089   15.2170    5.3447 N.3   1114  UNL1114    -0.3437
   4454 H          16.3149   14.7793    4.6419 H     1114  UNL1114     0.1146
   4455 H          17.5168   14.4792    5.6975 H     1114  UNL1114     0.1146
   4456 H          17.5144   15.8617    4.8387 H     1114  UNL1114     0.1146
   4457 N          16.8819   15.2281    7.9549 N.3   1115  UNL1115    -0.3437
   4458 H          16.3837   14.6596    7.2716 H     1115  UNL1115     0.1146
   4459 H          17.5123   14.5930    8.4425 H     1115  UNL1115     0.1146
   4460 H          17.4771   15.8564    7.4170 H     1115  UNL1115     0.1146
   4461 N          16.8006   15.1374   10.5362 N.3   1116  UNL1116    -0.3437
   4462 H          17.1171   15.9012    9.9406 H     1116  UNL1116     0.1146
   4463 H          16.7989   14.3050    9.9483 H     1116  UNL1116     0.1146
   4464 H          17.5384   14.9936   11.2243 H     1116  UNL1116     0.1146
   4465 N          16.8280   15.2022   13.1870 N.3   1117  UNL1117    -0.3437
   4466 H          16.5793   14.4685   12.5251 H     1117  UNL1117     0.1146
   4467 H          17.4828   14.7787   13.8429 H     1117  UNL1117     0.1146
   4468 H          17.3648   15.8878   12.6576 H     1117  UNL1117     0.1146
   4469 N          16.8185   15.0110   15.8418 N.3   1118  UNL1118    -0.3437
   4470 H          16.6494   15.7100   15.1199 H     1118  UNL1118     0.1146
   4471 H          17.2458   14.2161   15.3685 H     1118  UNL1118     0.1146
   4472 H          17.5413   15.4000   16.4456 H     1118  UNL1118     0.1146
   4473 N          16.8627   14.9133   18.4680 N.3   1119  UNL1119    -0.3437
   4474 H          16.4419   15.6542   17.9090 H     1119  UNL1119     0.1146
   4475 H          17.4661   14.3914   17.8340 H     1119  UNL1119     0.1146
   4476 H          17.4843   15.3782   19.1282 H     1119  UNL1119     0.1146
   4477 N          16.9035   14.9448   21.1811 N.3   1120  UNL1120    -0.3437
   4478 H          16.3284   15.4542   20.5118 H     1120  UNL1120     0.1146
   4479 H          17.4785   14.3086   20.6306 H     1120  UNL1120     0.1146
   4480 H          17.5446   15.6296   21.5791 H     1120  UNL1120     0.1146
   4481 N          16.8468   15.0016   23.7995 N.3   1121  UNL1121    -0.3437
   4482 H          17.5960   15.5011   24.2765 H     1121  UNL1121     0.1146
   4483 H          16.5228   15.6221   23.0589 H     1121  UNL1121     0.1146
   4484 H          17.2894   14.2123   23.3309 H     1121  UNL1121     0.1146
   4485 N          16.9061   14.9266   26.4513 N.3   1122  UNL1122    -0.3437
   4486 H          16.3233   15.5026   25.8456 H     1122  UNL1122     0.1146
   4487 H          17.4653   14.3429   25.8307 H     1122  UNL1122     0.1146
   4488 H          17.5604   15.5650   26.9015 H     1122  UNL1122     0.1146
   4489 N          16.8660   15.2161   29.0739 N.3   1123  UNL1123    -0.3437
   4490 H          16.4312   14.6653   28.3351 H     1123  UNL1123     0.1146
   4491 H          17.4773   14.5760   29.5788 H     1123  UNL1123     0.1146
   4492 H          17.4805   15.8798   28.6047 H     1123  UNL1123     0.1146
   4493 N          16.8401   15.2450   31.6462 N.3   1124  UNL1124    -0.3437
   4494 H          17.4270   14.8484   32.3787 H     1124  UNL1124     0.1146
   4495 H          17.4636   15.7863   31.0489 H     1124  UNL1124     0.1146
   4496 H          16.5244   14.4574   31.0819 H     1124  UNL1124     0.1146
   4497 N          16.8387   12.8983   34.1338 N.3   1125  UNL1125    -0.3437
   4498 H          16.6137   13.8593   33.8803 H     1125  UNL1125     0.1146
   4499 H          17.6689   12.6530   33.5962 H     1125  UNL1125     0.1146
   4500 H          17.1337   12.9266   35.1087 H     1125  UNL1125     0.1146
   4501 N          16.8911   17.7947    0.4193 N.3   1126  UNL1126    -0.3437
   4502 H          16.3931   18.4285    1.0427 H     1126  UNL1126     0.1146
   4503 H          17.6823   18.3234    0.0547 H     1126  UNL1126     0.1146
   4504 H          17.2885   17.0696    1.0148 H     1126  UNL1126     0.1146
   4505 N          16.8761   17.7609    2.9527 N.3   1127  UNL1127    -0.3437
   4506 H          16.4089   18.4345    3.5580 H     1127  UNL1127     0.1146
   4507 H          17.5824   18.2868    2.4399 H     1127  UNL1127     0.1146
   4508 H          17.3876   17.1340    3.5722 H     1127  UNL1127     0.1146
   4509 N          16.8463   17.7695    5.6232 N.3   1128  UNL1128    -0.3437
   4510 H          16.5008   18.4547    6.2936 H     1128  UNL1128     0.1146
   4511 H          17.4873   18.2732    5.0118 H     1128  UNL1128     0.1146
   4512 H          17.4206   17.1189    6.1573 H     1128  UNL1128     0.1146
   4513 N          16.8487   17.7764    8.2548 N.3   1129  UNL1129    -0.3437
   4514 H          16.4928   18.4356    8.9456 H     1129  UNL1129     0.1146
   4515 H          17.5026   18.3016    7.6760 H     1129  UNL1129     0.1146
   4516 H          17.4109   17.1027    8.7729 H     1129  UNL1129     0.1146
   4517 N          16.8583   17.7712   10.8873 N.3   1130  UNL1130    -0.3437
   4518 H          16.4623   18.4476   11.5385 H     1130  UNL1130     0.1146
   4519 H          17.5424   18.2831   10.3321 H     1130  UNL1130     0.1146
   4520 H          17.3920   17.1144   11.4548 H     1130  UNL1130     0.1146
   4521 N          16.8221   17.7824   13.5749 N.3   1131  UNL1131    -0.3437
   4522 H          16.6082   18.5786   14.1739 H     1131  UNL1131     0.1146
   4523 H          17.4766   18.1263   12.8737 H     1131  UNL1131     0.1146
   4524 H          17.3481   17.1290   14.1534 H     1131  UNL1131     0.1146
   4525 N          16.9305   17.7908   18.0965 N.3   1132  UNL1132    -0.3437
   4526 H          16.2837   18.2770   18.7159 H     1132  UNL1132     0.1146
   4527 H          17.6543   18.4676   17.8589 H     1132  UNL1132     0.1146
   4528 H          17.3865   17.0809   18.6678 H     1132  UNL1132     0.1146
   4529 N          16.9409   18.0929   20.7843 N.3   1133  UNL1133    -0.3437
   4530 H          17.2897   18.5536   21.6236 H     1133  UNL1133     0.1146
   4531 H          17.7348   17.5914   20.3885 H     1133  UNL1133     0.1146
   4532 H          16.2896   17.3784   21.1062 H     1133  UNL1133     0.1146
   4533 N          17.3002   18.0179   23.4804 N.3   1134  UNL1134    -0.3437
   4534 H          16.6075   17.6533   22.8280 H     1134  UNL1134     0.1146
   4535 H          16.8108   18.7006   24.0572 H     1134  UNL1134     0.1146
   4536 H          17.5366   17.2444   24.1003 H     1134  UNL1134     0.1146
   4537 N          17.2725   17.7641   26.4129 N.3   1135  UNL1135    -0.3437
   4538 H          16.6271   18.2886   27.0017 H     1135  UNL1135     0.1146
   4539 H          16.6971   17.1275   25.8633 H     1135  UNL1135     0.1146
   4540 H          17.6583   18.4361   25.7512 H     1135  UNL1135     0.1146
   4541 N          16.9000   18.1029   29.0431 N.3   1136  UNL1136    -0.3437
   4542 H          16.3389   17.4678   28.4774 H     1136  UNL1136     0.1146
   4543 H          17.4483   17.5130   29.6675 H     1136  UNL1136     0.1146
   4544 H          17.5677   18.5325   28.4044 H     1136  UNL1136     0.1146
   4545 N          16.8879   18.1006   31.6724 N.3   1137  UNL1137    -0.3437
   4546 H          16.3691   17.4156   31.1247 H     1137  UNL1137     0.1146
   4547 H          17.4516   17.5649   32.3309 H     1137  UNL1137     0.1146
   4548 H          17.5465   18.5352   31.0277 H     1137  UNL1137     0.1146
   4549 N          17.3372   16.0162   35.1728 N.3   1138  UNL1138    -0.3437
   4550 H          16.9187   15.9401   34.2468 H     1138  UNL1138     0.1146
   4551 H          16.6939   16.5803   35.7262 H     1138  UNL1138     0.1146
   4552 H          17.3053   15.0797   35.5732 H     1138  UNL1138     0.1146
   4553 N          14.8966   20.5674   -0.3379 N.3   1139  UNL1139    -0.3437
   4554 H          14.3455   21.1522    0.2887 H     1139  UNL1139     0.1146
   4555 H          15.5398   21.1967   -0.8163 H     1139  UNL1139     0.1146
   4556 H          15.4733   19.9790    0.2616 H     1139  UNL1139     0.1146
   4557 N          16.9024   20.5803    2.2880 N.3   1140  UNL1140    -0.3437
   4558 H          16.3303   21.0856    2.9631 H     1140  UNL1140     0.1146
   4559 H          17.5261   21.2721    1.8747 H     1140  UNL1140     0.1146
   4560 H          17.4962   19.9573    2.8335 H     1140  UNL1140     0.1146
   4561 N          16.8428   20.5836    5.2681 N.3   1141  UNL1141    -0.3437
   4562 H          16.5152   21.3236    4.6488 H     1141  UNL1141     0.1146
   4563 H          17.4051   19.9614    4.6893 H     1141  UNL1141     0.1146
   4564 H          17.4919   21.0268    5.9166 H     1141  UNL1141     0.1146
   4565 N          16.8554   20.5777    7.9219 N.3   1142  UNL1142    -0.3437
   4566 H          16.4691   21.2923    7.3068 H     1142  UNL1142     0.1146
   4567 H          17.4138   19.9671    7.3271 H     1142  UNL1142     0.1146
   4568 H          17.5167   21.0583    8.5303 H     1142  UNL1142     0.1146
   4569 N          16.8620   20.5626   10.5561 N.3   1143  UNL1143    -0.3437
   4570 H          16.4449   21.2860    9.9721 H     1143  UNL1143     0.1146
   4571 H          17.4453   20.0026    9.9359 H     1143  UNL1143     0.1146
   4572 H          17.5028   21.0442   11.1852 H     1143  UNL1143     0.1146
   4573 N          16.8600   20.6297   13.2455 N.3   1144  UNL1144    -0.3437
   4574 H          16.4659   21.2100   12.5064 H     1144  UNL1144     0.1146
   4575 H          17.3413   19.8645   12.7753 H     1144  UNL1144     0.1146
   4576 H          17.5878   21.1911   13.6854 H     1144  UNL1144     0.1146
   4577 N          16.8814   20.6580   15.4708 N.3   1145  UNL1145    -0.3437
   4578 H          16.3893   21.0082   16.2915 H     1145  UNL1145     0.1146
   4579 H          17.5628   21.3747   15.2248 H     1145  UNL1145     0.1146
   4580 H          17.4214   19.8545   15.7888 H     1145  UNL1145     0.1146
   4581 N          16.8885   20.5888   18.1388 N.3   1146  UNL1146    -0.3437
   4582 H          16.3737   21.1956   18.7754 H     1146  UNL1146     0.1146
   4583 H          17.5931   21.1780   17.6974 H     1146  UNL1146     0.1146
   4584 H          17.3997   19.9329   18.7277 H     1146  UNL1146     0.1146
   4585 N          16.8950   20.5097   20.8614 N.3   1147  UNL1147    -0.3437
   4586 H          16.3490   21.2489   21.3016 H     1147  UNL1147     0.1146
   4587 H          17.4768   20.9688   20.1619 H     1147  UNL1147     0.1146
   4588 H          17.5342   20.1680   21.5777 H     1147  UNL1147     0.1146
   4589 N          16.8868   20.8534   23.8146 N.3   1148  UNL1148    -0.3437
   4590 H          16.3948   20.1829   23.2258 H     1148  UNL1148     0.1146
   4591 H          17.6525   20.3386   24.2472 H     1148  UNL1148     0.1146
   4592 H          17.3210   21.5204   23.1783 H     1148  UNL1148     0.1146
   4593 N          16.8946   20.5840   26.0593 N.3   1149  UNL1149    -0.3437
   4594 H          16.3509   21.1274   26.7283 H     1149  UNL1149     0.1146
   4595 H          17.5458   21.2388   25.6287 H     1149  UNL1149     0.1146
   4596 H          17.4637   19.9452   26.6129 H     1149  UNL1149     0.1146
   4597 N          16.8684   20.5515   28.7584 N.3   1150  UNL1150    -0.3437
   4598 H          16.4235   21.2625   29.3370 H     1150  UNL1150     0.1146
   4599 H          17.4805   21.0539   28.1170 H     1150  UNL1150     0.1146
   4600 H          17.4826   20.0274   29.3800 H     1150  UNL1150     0.1146
   4601 N          16.8714   20.5471   31.4005 N.3   1151  UNL1151    -0.3437
   4602 H          16.4143   21.2631   31.9634 H     1151  UNL1151     0.1146
   4603 H          17.4836   21.0451   30.7558 H     1151  UNL1151     0.1146
   4604 H          17.4858   20.0401   32.0360 H     1151  UNL1151     0.1146
   4605 N          16.8538   18.9187   34.1068 N.3   1152  UNL1152    -0.3437
   4606 H          16.5862   17.9565   33.9041 H     1152  UNL1152     0.1146
   4607 H          17.0862   18.9425   35.0987 H     1152  UNL1152     0.1146
   4608 H          17.7288   19.0776   33.6094 H     1152  UNL1152     0.1146
   4609 N          16.8751   23.3933   -0.3218 N.3   1153  UNL1153    -0.3437
   4610 H          16.4059   24.0496    0.3007 H     1153  UNL1153     0.1146
   4611 H          17.5413   23.9446   -0.8608 H     1153  UNL1153     0.1146
   4612 H          17.4327   22.7869    0.2781 H     1153  UNL1153     0.1146
   4613 N          16.8875   23.3880    2.3108 N.3   1154  UNL1154    -0.3437
   4614 H          16.3686   23.9875    2.9508 H     1154  UNL1154     0.1146
   4615 H          17.5222   24.0023    1.8027 H     1154  UNL1154     0.1146
   4616 H          17.4767   22.7967    2.8952 H     1154  UNL1154     0.1146
   4617 N          16.8718   23.3887    4.9678 N.3   1155  UNL1155    -0.3437
   4618 H          16.4131   24.0299    5.6133 H     1155  UNL1155     0.1146
   4619 H          17.4980   23.9598    4.4020 H     1155  UNL1155     0.1146
   4620 H          17.4721   22.7961    5.5396 H     1155  UNL1155     0.1146
   4621 N          16.8557   23.4009    7.6175 N.3   1156  UNL1156    -0.3437
   4622 H          16.4655   24.0515    8.2978 H     1156  UNL1156     0.1146
   4623 H          17.4761   23.9518    7.0258 H     1156  UNL1156     0.1146
   4624 H          17.4577   22.7703    8.1450 H     1156  UNL1156     0.1146
   4625 N          16.8689   23.4005   10.2423 N.3   1157  UNL1157    -0.3437
   4626 H          16.4236   24.0371   10.9017 H     1157  UNL1157     0.1146
   4627 H          17.5220   23.9668    9.7026 H     1157  UNL1157     0.1146
   4628 H          17.4405   22.7701   10.8028 H     1157  UNL1157     0.1146
   4629 N          16.8741   23.3799   12.8963 N.3   1158  UNL1158    -0.3437
   4630 H          16.4062   24.0451   13.5102 H     1158  UNL1158     0.1146
   4631 H          17.4985   23.9308   12.3090 H     1158  UNL1158     0.1146
   4632 H          17.4762   22.8187   13.4971 H     1158  UNL1158     0.1146
   4633 N          16.8688   23.3872   15.5362 N.3   1159  UNL1159    -0.3437
   4634 H          16.4234   24.0672   16.1507 H     1159  UNL1159     0.1146
   4635 H          17.5143   23.9170   14.9521 H     1159  UNL1159     0.1146
   4636 H          17.4486   22.8031   16.1370 H     1159  UNL1159     0.1146
   4637 N          16.8816   23.4019   18.1501 N.3   1160  UNL1160    -0.3437
   4638 H          16.3895   24.0288   18.7851 H     1160  UNL1160     0.1146
   4639 H          17.5675   23.9770   17.6631 H     1160  UNL1160     0.1146
   4640 H          17.4164   22.7668   18.7409 H     1160  UNL1160     0.1146
   4641 N          16.8496   23.4137   20.8187 N.3   1161  UNL1161    -0.3437
   4642 H          16.4923   24.1063   21.4753 H     1161  UNL1161     0.1146
   4643 H          17.5250   23.9035   20.2337 H     1161  UNL1161     0.1146
   4644 H          17.3881   22.7511   21.3748 H     1161  UNL1161     0.1146
   4645 N          16.8740   23.3757   23.4643 N.3   1162  UNL1162    -0.3437
   4646 H          16.4089   24.0957   24.0153 H     1162  UNL1162     0.1146
   4647 H          17.5360   23.8652   22.8639 H     1162  UNL1162     0.1146
   4648 H          17.4362   22.8378   24.1223 H     1162  UNL1162     0.1146
   4649 N          16.8706   23.3920   26.0928 N.3   1163  UNL1163    -0.3437
   4650 H          16.4168   24.0170   26.7574 H     1163  UNL1163     0.1146
   4651 H          17.4898   23.9776   25.5342 H     1163  UNL1163     0.1146
   4652 H          17.4778   22.7879   26.6449 H     1163  UNL1163     0.1146
   4653 N          16.8686   23.3938   28.7343 N.3   1164  UNL1164    -0.3437
   4654 H          16.4241   24.0498   29.3749 H     1164  UNL1164     0.1146
   4655 H          17.5148   23.9450   28.1713 H     1164  UNL1164     0.1146
   4656 H          17.4476   22.7859   29.3119 H     1164  UNL1164     0.1146
   4657 N          16.8327   23.4337   31.3909 N.3   1165  UNL1165    -0.3437
   4658 H          16.5545   24.0260   32.1720 H     1165  UNL1165     0.1146
   4659 H          17.4392   24.0067   30.8059 H     1165  UNL1165     0.1146
   4660 H          17.4286   22.7081   31.7870 H     1165  UNL1165     0.1146
   4661 N          17.1345   21.3434   34.9741 N.3   1166  UNL1166    -0.3437
   4662 H          16.4109   21.9896   34.6624 H     1166  UNL1166     0.1146
   4663 H          17.9269   21.9213   35.2509 H     1166  UNL1166     0.1146
   4664 H          16.7826   20.9201   35.8316 H     1166  UNL1166     0.1146
   4665 N          16.8306   26.2360   -0.2805 N.3   1167  UNL1167    -0.3437
   4666 H          16.5656   26.9759    0.3681 H     1167  UNL1167     0.1146
   4667 H          17.4681   26.6644   -0.9501 H     1167  UNL1167     0.1146
   4668 H          17.3908   25.5773    0.2587 H     1167  UNL1167     0.1146
   4669 N          17.2991   26.3911    2.3131 N.3   1168  UNL1168    -0.3437
   4670 H          17.5178   25.9193    3.1894 H     1168  UNL1168     0.1146
   4671 H          16.5459   25.8542    1.8854 H     1168  UNL1168     0.1146
   4672 H          16.8922   27.2889    2.5715 H     1168  UNL1168     0.1146
   4673 N          16.8805   26.4723    5.3355 N.3   1169  UNL1169    -0.3437
   4674 H          17.4782   27.1864    4.9216 H     1169  UNL1169     0.1146
   4675 H          16.3877   26.0338    4.5588 H     1169  UNL1169     0.1146
   4676 H          17.5086   25.7611    5.7069 H     1169  UNL1169     0.1146
   4677 N          16.8754   26.5262    7.9308 N.3   1170  UNL1170    -0.3437
   4678 H          16.4027   25.8557    7.3265 H     1170  UNL1170     0.1146
   4679 H          17.5131   25.9817    8.5099 H     1170  UNL1170     0.1146
   4680 H          17.4637   27.0899    7.3188 H     1170  UNL1170     0.1146
   4681 N          16.8529   26.4464   10.6022 N.3   1171  UNL1171    -0.3437
   4682 H          16.4775   25.9987    9.7673 H     1171  UNL1171     0.1146
   4683 H          17.5083   25.7798   11.0078 H     1171  UNL1171     0.1146
   4684 H          17.4163   27.2287   10.2721 H     1171  UNL1171     0.1146
   4685 N          16.8232   26.2824   12.9017 N.3   1172  UNL1172    -0.3437
   4686 H          16.6034   26.8646   13.7087 H     1172  UNL1172     0.1146
   4687 H          17.4810   26.8196   12.3386 H     1172  UNL1172     0.1146
   4688 H          17.3474   25.4871   13.2636 H     1172  UNL1172     0.1146
   4689 N          16.8655   26.4686   15.8863 N.3   1173  UNL1173    -0.3437
   4690 H          16.4336   25.9878   15.0985 H     1173  UNL1173     0.1146
   4691 H          17.5059   25.7976   16.3081 H     1173  UNL1173     0.1146
   4692 H          17.4500   27.1995   15.4831 H     1173  UNL1173     0.1146
   4693 N          16.8949   26.2649   18.1131 N.3   1174  UNL1174    -0.3437
   4694 H          16.3507   26.6779   18.8691 H     1174  UNL1174     0.1146
   4695 H          17.5548   26.9829   17.8172 H     1174  UNL1174     0.1146
   4696 H          17.4545   25.5279   18.5398 H     1174  UNL1174     0.1146
   4697 N          16.8830   26.2061   20.8025 N.3   1175  UNL1175    -0.3437
   4698 H          16.3804   26.7999   21.4606 H     1175  UNL1175     0.1146
   4699 H          17.4938   26.8272   20.2737 H     1175  UNL1175     0.1146
   4700 H          17.4979   25.6204   21.3658 H     1175  UNL1175     0.1146
   4701 N          16.8668   26.2217   23.4476 N.3   1176  UNL1176    -0.3437
   4702 H          16.4298   26.8544   24.1162 H     1176  UNL1176     0.1146
   4703 H          17.5148   26.7907   22.9046 H     1176  UNL1176     0.1146
   4704 H          17.4437   25.5867   23.9975 H     1176  UNL1176     0.1146
   4705 N          16.8599   26.2185   26.0998 N.3   1177  UNL1177    -0.3437
   4706 H          16.4517   26.8742   26.7645 H     1177  UNL1177     0.1146
   4707 H          17.4921   26.7658   25.5175 H     1177  UNL1177     0.1146
   4708 H          17.4514   25.5951   26.6474 H     1177  UNL1177     0.1146
   4709 N          16.8573   26.2147   28.7477 N.3   1178  UNL1178    -0.3437
   4710 H          16.4612   26.9116   29.3769 H     1178  UNL1178     0.1146
   4711 H          17.5014   26.7189   28.1399 H     1178  UNL1178     0.1146
   4712 H          17.4352   25.6084   29.3280 H     1178  UNL1178     0.1146
   4713 N          16.8427   26.2495   31.3791 N.3   1179  UNL1179    -0.3437
   4714 H          16.5135   26.8000   32.1709 H     1179  UNL1179     0.1146
   4715 H          17.4430   26.8689   30.8365 H     1179  UNL1179     0.1146
   4716 H          17.4558   25.5352   31.7692 H     1179  UNL1179     0.1146
   4717 N          17.3100   24.3539   35.3430 N.3   1180  UNL1180    -0.3437
   4718 H          17.2153   25.2251   34.8230 H     1180  UNL1180     0.1146
   4719 H          16.4626   24.2671   35.9024 H     1180  UNL1180     0.1146
   4720 H          17.2671   23.6075   34.6506 H     1180  UNL1180     0.1146
   4721 N          16.8643   30.0609   -0.3317 N.3   1181  UNL1181    -0.3437
   4722 H          16.4458   30.7010    0.3417 H     1181  UNL1181     0.1146
   4723 H          17.5702   30.6004   -0.8308 H     1181  UNL1181     0.1146
   4724 H          17.3747   29.3703    0.2169 H     1181  UNL1181     0.1146
   4725 N          16.8553   30.0630    2.3182 N.3   1182  UNL1182    -0.3437
   4726 H          16.4736   30.7075    3.0091 H     1182  UNL1182     0.1146
   4727 H          17.5439   30.5950    1.7880 H     1182  UNL1182     0.1146
   4728 H          17.3822   29.3672    2.8441 H     1182  UNL1182     0.1146
   4729 N          16.8467   30.1554    4.9320 N.3   1183  UNL1183    -0.3437
   4730 H          16.5069   30.4390    5.8499 H     1183  UNL1183     0.1146
   4731 H          17.5413   30.8506    4.6625 H     1183  UNL1183     0.1146
   4732 H          17.3602   29.2875    5.0784 H     1183  UNL1183     0.1146
   4733 N          16.8798   28.9591    7.7135 N.3   1184  UNL1184    -0.3437
   4734 H          16.3900   29.8335    7.8980 H     1184  UNL1184     0.1146
   4735 H          17.5200   29.1527    6.9447 H     1184  UNL1184     0.1146
   4736 H          17.4651   28.7874    8.5298 H     1184  UNL1184     0.1146
   4737 N          16.8862   30.1014   10.1905 N.3   1185  UNL1185    -0.3437
   4738 H          16.3729   30.4602   10.9944 H     1185  UNL1185     0.1146
   4739 H          17.5386   30.8371    9.9227 H     1185  UNL1185     0.1146
   4740 H          17.4573   29.3340   10.5416 H     1185  UNL1185     0.1146
   4741 N          16.8862   30.1014   12.8314 N.3   1186  UNL1186    -0.3437
   4742 H          16.3729   30.4602   13.6352 H     1186  UNL1186     0.1146
   4743 H          17.5386   30.8371   12.5636 H     1186  UNL1186     0.1146
   4744 H          17.4573   29.3340   13.1825 H     1186  UNL1186     0.1146
   4745 N          16.8862   30.1014   15.4722 N.3   1187  UNL1187    -0.3437
   4746 H          16.3729   30.4602   16.2761 H     1187  UNL1187     0.1146
   4747 H          17.5386   30.8371   15.2044 H     1187  UNL1187     0.1146
   4748 H          17.4573   29.3340   15.8233 H     1187  UNL1187     0.1146
   4749 N          16.8533   30.0617   18.1665 N.3   1188  UNL1188    -0.3437
   4750 H          16.4838   30.7405   18.8307 H     1188  UNL1188     0.1146
   4751 H          17.5574   30.5570   17.6212 H     1188  UNL1188     0.1146
   4752 H          17.3604   29.3735   18.7210 H     1188  UNL1188     0.1146
   4753 N          16.9291   30.0634   20.7413 N.3   1189  UNL1189    -0.3437
   4754 H          16.2720   30.4290   21.4290 H     1189  UNL1189     0.1146
   4755 H          17.5366   30.8424   20.4913 H     1189  UNL1189     0.1146
   4756 H          17.5173   29.3979   21.2409 H     1189  UNL1189     0.1146
   4757 N          17.0536   30.3055   23.3475 N.3   1190  UNL1190    -0.3437
   4758 H          16.2189   30.4975   23.8997 H     1190  UNL1190     0.1146
   4759 H          17.8404   30.6388   23.9027 H     1190  UNL1190     0.1146
   4760 H          17.1421   29.2908   23.3159 H     1190  UNL1190     0.1146
   4761 N          16.8862   30.1014   26.0355 N.3   1191  UNL1191    -0.3437
   4762 H          16.3729   30.4602   26.8394 H     1191  UNL1191     0.1146
   4763 H          17.5386   30.8371   25.7677 H     1191  UNL1191     0.1146
   4764 H          17.4573   29.3340   26.3866 H     1191  UNL1191     0.1146
   4765 N          16.8777   30.1012   28.6835 N.3   1192  UNL1192    -0.3437
   4766 H          16.3965   30.4674   29.5037 H     1192  UNL1192     0.1146
   4767 H          17.5237   30.8316   28.3875 H     1192  UNL1192     0.1146
   4768 H          17.4571   29.3325   29.0177 H     1192  UNL1192     0.1146
   4769 N          16.8149   30.1398   31.3854 N.3   1193  UNL1193    -0.3437
   4770 H          16.6401   30.4547   32.3387 H     1193  UNL1193     0.1146
   4771 H          17.4206   30.8427   30.9641 H     1193  UNL1193     0.1146
   4772 H          17.3794   29.2955   31.4676 H     1193  UNL1193     0.1146
   4773 N          16.7709   29.1929   34.1408 N.3   1194  UNL1194    -0.3437
   4774 H          17.0358   28.7878   35.0375 H     1194  UNL1194     0.1146
   4775 H          17.2034   30.1151   34.1104 H     1194  UNL1194     0.1146
   4776 H          17.2449   28.6369   33.4304 H     1194  UNL1194     0.1146
   4777 N          19.3935    0.9554    0.7037 N.3   1195  UNL1195    -0.3437
   4778 H          19.7831    0.0636    0.4016 H     1195  UNL1195     0.1146
   4779 H          20.1878    1.5266    0.9889 H     1195  UNL1195     0.1146
   4780 H          19.0175    1.3960   -0.1347 H     1195  UNL1195     0.1146
   4781 N          19.4307    0.8701    2.9140 N.3   1196  UNL1196    -0.3437
   4782 H          19.9447    1.6993    2.6196 H     1196  UNL1196     0.1146
   4783 H          20.1290    0.2178    3.2680 H     1196  UNL1196     0.1146
   4784 H          18.8774    1.1545    3.7211 H     1196  UNL1196     0.1146
   4785 N          19.7056    0.8123    5.9843 N.3   1197  UNL1197    -0.3437
   4786 H          19.5942    0.3238    5.0970 H     1197  UNL1197     0.1146
   4787 H          20.2955    1.6197    5.7882 H     1197  UNL1197     0.1146
   4788 H          18.7865    1.1859    6.2165 H     1197  UNL1197     0.1146
   4789 N          19.4572    0.7772    8.3975 N.3   1198  UNL1198    -0.3437
   4790 H          18.8326    1.2672    9.0364 H     1198  UNL1198     0.1146
   4791 H          19.8829    1.4963    7.8143 H     1198  UNL1198     0.1146
   4792 H          20.2092    0.4010    8.9731 H     1198  UNL1198     0.1146
   4793 N          19.3996    0.8883   10.8542 N.3   1199  UNL1199    -0.3437
   4794 H          18.9582    1.3387   11.6547 H     1199  UNL1199     0.1146
   4795 H          20.0469    1.5739   10.4679 H     1199  UNL1199     0.1146
   4796 H          19.9772    0.1407   11.2359 H     1199  UNL1199     0.1146
   4797 N          19.3838    1.1730   13.6082 N.3   1200  UNL1200    -0.3437
   4798 H          20.0693    1.6075   14.2243 H     1200  UNL1200     0.1146
   4799 H          19.9123    0.7903   12.8255 H     1200  UNL1200     0.1146
   4800 H          19.0165    0.3708   14.1180 H     1200  UNL1200     0.1146
   4801 N          19.3719    1.1123   16.4807 N.3   1201  UNL1201    -0.3437
   4802 H          19.9933    0.5853   17.0927 H     1201  UNL1201     0.1146
   4803 H          19.9611    1.7885   15.9971 H     1201  UNL1201     0.1146
   4804 H          19.0555    0.4556   15.7687 H     1201  UNL1201     0.1146
   4805 N          19.4854    1.0461   19.2432 N.3   1202  UNL1202    -0.3437
   4806 H          20.4780    1.2634   19.1668 H     1202  UNL1202     0.1146
   4807 H          19.0252    1.5696   18.4998 H     1202  UNL1202     0.1146
   4808 H          19.3931    0.0626   18.9927 H     1202  UNL1202     0.1146
   4809 N          19.4401    0.9534   21.8659 N.3   1203  UNL1203    -0.3437
   4810 H          19.1886    0.2687   21.1543 H     1203  UNL1203     0.1146
   4811 H          20.4437    0.8521   22.0108 H     1203  UNL1203     0.1146
   4812 H          19.3094    1.8674   21.4349 H     1203  UNL1203     0.1146
   4813 N          19.6158    0.8588   24.5236 N.3   1204  UNL1204    -0.3437
   4814 H          19.4405    0.1852   23.7793 H     1204  UNL1204     0.1146
   4815 H          20.4644    1.3564   24.2580 H     1204  UNL1204     0.1146
   4816 H          18.8611    1.5413   24.4682 H     1204  UNL1204     0.1146
   4817 N          19.3933    0.8777   27.0849 N.3   1205  UNL1205    -0.3437
   4818 H          20.1390    1.3837   27.5604 H     1205  UNL1205     0.1146
   4819 H          18.9977    1.5299   26.4092 H     1205  UNL1205     0.1146
   4820 H          19.8518    0.1504   26.5379 H     1205  UNL1205     0.1146
   4821 N          17.3483    1.0530   31.3916 N.3   1206  UNL1206    -0.3437
   4822 H          17.9259    1.8693   31.5876 H     1206  UNL1206     0.1146
   4823 H          17.9451    0.4022   30.8829 H     1206  UNL1206     0.1146
   4824 H          17.1626    0.6172   32.2937 H     1206  UNL1206     0.1146
   4825 N          19.7517    1.0995   35.4033 N.3   1207  UNL1207    -0.3437
   4826 H          20.1880    0.2718   34.9997 H     1207  UNL1207     0.1146
   4827 H          19.6281    1.7556   34.6334 H     1207  UNL1207     0.1146
   4828 H          18.8140    0.8147   35.6827 H     1207  UNL1207     0.1146
   4829 N          19.3945    3.6411   -0.2927 N.3   1208  UNL1208    -0.3437
   4830 H          18.9742    4.3768    0.2734 H     1208  UNL1208     0.1146
   4831 H          20.0399    4.1091   -0.9274 H     1208  UNL1208     0.1146
   4832 H          19.9732    3.0937    0.3428 H     1208  UNL1208     0.1146
   4833 N          19.4087    3.9865    2.6299 N.3   1209  UNL1209    -0.3437
   4834 H          18.9296    3.2909    2.0598 H     1209  UNL1209     0.1146
   4835 H          20.0043    3.4632    3.2700 H     1209  UNL1209     0.1146
   4836 H          20.0392    4.4802    1.9997 H     1209  UNL1209     0.1146
   4837 N          19.4294    3.9306    5.3406 N.3   1210  UNL1210    -0.3437
   4838 H          18.8772    3.4136    4.6578 H     1210  UNL1210     0.1146
   4839 H          20.1047    3.2665    5.7165 H     1210  UNL1210     0.1146
   4840 H          19.9705    4.6100    4.8077 H     1210  UNL1210     0.1146
   4841 N          19.4167    3.6663    7.5814 N.3   1211  UNL1211    -0.3437
   4842 H          18.9066    4.1952    8.2874 H     1211  UNL1211     0.1146
   4843 H          20.0365    4.3334    7.1240 H     1211  UNL1211     0.1146
   4844 H          20.0220    3.0258    8.0931 H     1211  UNL1211     0.1146
   4845 N          19.4094    3.9603   10.5818 N.3   1212  UNL1212    -0.3437
   4846 H          18.9299    3.2959    9.9759 H     1212  UNL1212     0.1146
   4847 H          20.0758    3.4141   11.1258 H     1212  UNL1212     0.1146
   4848 H          19.9667    4.5505    9.9658 H     1212  UNL1212     0.1146
   4849 N          19.3772    3.7409   12.8644 N.3   1213  UNL1213    -0.3437
   4850 H          19.0343    4.0405   13.7760 H     1213  UNL1213     0.1146
   4851 H          19.9791    4.4921   12.5300 H     1213  UNL1213     0.1146
   4852 H          19.9911    2.9473   13.0422 H     1213  UNL1213     0.1146
   4853 N          19.4059    3.9456   15.8721 N.3   1214  UNL1214    -0.3437
   4854 H          18.9450    3.2840   15.2490 H     1214  UNL1214     0.1146
   4855 H          20.1044    3.4090   16.3845 H     1214  UNL1214     0.1146
   4856 H          19.9266    4.5821   15.2704 H     1214  UNL1214     0.1146
   4857 N          19.3888    3.7126   18.1448 N.3   1215  UNL1215    -0.3437
   4858 H          18.9924    4.1289   18.9862 H     1215  UNL1215     0.1146
   4859 H          20.0039    4.4197   17.7446 H     1215  UNL1215     0.1146
   4860 H          19.9968    2.9596   18.4637 H     1215  UNL1215     0.1146
   4861 N          19.4013    3.9421   21.1515 N.3   1216  UNL1216    -0.3437
   4862 H          18.9636    3.2510   20.5439 H     1216  UNL1216     0.1146
   4863 H          20.1209    3.4426   21.6722 H     1216  UNL1216     0.1146
   4864 H          19.8960    4.5850   20.5349 H     1216  UNL1216     0.1146
   4865 N          19.3926    3.7235   23.4176 N.3   1217  UNL1217    -0.3437
   4866 H          18.9813    4.1391   24.2521 H     1217  UNL1217     0.1146
   4867 H          20.0465    4.4147   23.0527 H     1217  UNL1217     0.1146
   4868 H          19.9614    2.9434   23.7434 H     1217  UNL1217     0.1146
   4869 N          19.3734    3.9337   26.4040 N.3   1218  UNL1218    -0.3437
   4870 H          19.0492    3.2956   25.6787 H     1218  UNL1218     0.1146
   4871 H          19.9808    3.3845   27.0105 H     1218  UNL1218     0.1146
   4872 H          19.9784    4.6069   25.9359 H     1218  UNL1218     0.1146
   4873 N          19.3463    3.9020   29.0243 N.3   1219  UNL1219    -0.3437
   4874 H          19.2112    3.0421   28.4946 H     1219  UNL1219     0.1146
   4875 H          20.0799    3.7017   29.7027 H     1219  UNL1219     0.1146
   4876 H          19.7444    4.5749   28.3708 H     1219  UNL1219     0.1146
   4877 N          19.3410    3.9315   31.6206 N.3   1220  UNL1220    -0.3437
   4878 H          19.2030    3.1132   31.0291 H     1220  UNL1220     0.1146
   4879 H          19.8958    3.6141   32.4142 H     1220  UNL1220     0.1146
   4880 H          19.9421    4.5620   31.0919 H     1220  UNL1220     0.1146
   4881 N          19.5034    4.0398   35.3342 N.3   1221  UNL1221    -0.3437
   4882 H          18.7938    3.3120   35.2625 H     1221  UNL1221     0.1146
   4883 H          20.3224    3.5940   35.7452 H     1221  UNL1221     0.1146
   4884 H          19.7623    4.2749   34.3771 H     1221  UNL1221     0.1146
   4885 N          19.3832    6.5781   -0.3513 N.3   1222  UNL1222    -0.3437
   4886 H          19.0194    6.6546    0.5974 H     1222  UNL1222     0.1146
   4887 H          19.9043    7.4370   -0.5225 H     1222  UNL1222     0.1146
   4888 H          20.0749    5.8301   -0.3275 H     1222  UNL1222     0.1146
   4889 N          19.7328    6.4287    2.6631 N.3   1223  UNL1223    -0.3437
   4890 H          19.2426    7.1475    3.1936 H     1223  UNL1223     0.1146
   4891 H          19.0335    5.9995    2.0588 H     1223  UNL1223     0.1146
   4892 H          20.3729    6.9241    2.0440 H     1223  UNL1223     0.1146
   4893 N          19.7691    6.4379    5.2797 N.3   1224  UNL1224    -0.3437
   4894 H          18.9446    5.9840    4.8892 H     1224  UNL1224     0.1146
   4895 H          20.2463    6.8777    4.4940 H     1224  UNL1224     0.1146
   4896 H          19.4218    7.2002    5.8598 H     1224  UNL1224     0.1146
   4897 N          19.4200    6.7351    7.9824 N.3   1225  UNL1225    -0.3437
   4898 H          18.8984    6.2910    7.2280 H     1225  UNL1225     0.1146
   4899 H          20.0627    6.0269    8.3343 H     1225  UNL1225     0.1146
   4900 H          20.0007    7.4469    7.5414 H     1225  UNL1225     0.1146
   4901 N          19.4500    6.4360   10.2376 N.3   1226  UNL1226    -0.3437
   4902 H          18.8279    7.0721   10.7344 H     1226  UNL1226     0.1146
   4903 H          20.1026    7.0260    9.7233 H     1226  UNL1226     0.1146
   4904 H          20.0013    5.9658   10.9540 H     1226  UNL1226     0.1146
   4905 N          19.3819    6.7713   13.1959 N.3   1227  UNL1227    -0.3437
   4906 H          19.0193    6.0338   12.5934 H     1227  UNL1227     0.1146
   4907 H          20.0403    6.3189   13.8285 H     1227  UNL1227     0.1146
   4908 H          19.9402    7.3758   12.5948 H     1227  UNL1227     0.1146
   4909 N          19.4127    6.7533   15.8877 N.3   1228  UNL1228    -0.3437
   4910 H          18.9193    6.3129   15.1124 H     1228  UNL1228     0.1146
   4911 H          19.9833    6.0218   16.3092 H     1228  UNL1228     0.1146
   4912 H          20.0665    7.4119   15.4667 H     1228  UNL1228     0.1146
   4913 N          19.4199    6.5164   18.1232 N.3   1229  UNL1229    -0.3437
   4914 H          18.9032    7.0140   18.8469 H     1229  UNL1229     0.1146
   4915 H          20.1077    7.1772   17.7644 H     1229  UNL1229     0.1146
   4916 H          19.9510    5.7922   18.6048 H     1229  UNL1229     0.1146
   4917 N          19.4095    6.8371   20.8873 N.3   1230  UNL1230    -0.3437
   4918 H          18.9279    6.0283   21.2775 H     1230  UNL1230     0.1146
   4919 H          20.0555    7.1544   21.6087 H     1230  UNL1230     0.1146
   4920 H          19.9889    6.4801   20.1289 H     1230  UNL1230     0.1146
   4921 N          19.7707    6.4697   23.4360 N.3   1231  UNL1231    -0.3437
   4922 H          20.2080    7.3282   23.7678 H     1231  UNL1231     0.1146
   4923 H          19.5044    5.9494   24.2707 H     1231  UNL1231     0.1146
   4924 H          18.8987    6.7525   22.9912 H     1231  UNL1231     0.1146
   4925 N          19.4124    6.7968   26.4133 N.3   1232  UNL1232    -0.3437
   4926 H          18.9195    6.1055   25.8499 H     1232  UNL1232     0.1146
   4927 H          20.0574    6.2713   27.0018 H     1232  UNL1232     0.1146
   4928 H          19.9926    7.3262   25.7641 H     1232  UNL1232     0.1146
   4929 N          19.4038    6.7585   29.0792 N.3   1233  UNL1233    -0.3437
   4930 H          18.9442    6.1983   28.3627 H     1233  UNL1233     0.1146
   4931 H          20.0338    6.1253   29.5697 H     1233  UNL1233     0.1146
   4932 H          20.0000    7.4177   28.5809 H     1233  UNL1233     0.1146
   4933 N          17.3982    6.7859   31.6891 N.3   1234  UNL1234    -0.3437
   4934 H          18.0504    6.2935   32.2979 H     1234  UNL1234     0.1146
   4935 H          17.9703    7.3490   31.0615 H     1234  UNL1234     0.1146
   4936 H          16.9630    6.0714   31.1073 H     1234  UNL1234     0.1146
   4937 N          19.6408    6.8286   35.3892 N.3   1235  UNL1235    -0.3437
   4938 H          18.7686    6.3178   35.5185 H     1235  UNL1235     0.1146
   4939 H          20.3767    6.1244   35.3581 H     1235  UNL1235     0.1146
   4940 H          19.5956    7.2290   34.4532 H     1235  UNL1235     0.1146
   4941 N          19.7698    9.3381    2.7034 N.3   1236  UNL1236    -0.3437
   4942 H          19.0462    9.9609    3.0596 H     1236  UNL1236     0.1146
   4943 H          19.2819    8.6053    2.1901 H     1236  UNL1236     0.1146
   4944 H          20.2840    9.8746    2.0062 H     1236  UNL1236     0.1146
   4945 N          19.3820    9.5148    4.9386 N.3   1237  UNL1237    -0.3437
   4946 H          19.0508    9.4840    5.9018 H     1237  UNL1237     0.1146
   4947 H          20.1549   10.1788    4.9284 H     1237  UNL1237     0.1146
   4948 H          19.7941    8.6013    4.7539 H     1237  UNL1237     0.1146
   4949 N          19.4674    9.6719    7.9108 N.3   1238  UNL1238    -0.3437
   4950 H          18.7952    9.0724    7.4342 H     1238  UNL1238     0.1146
   4951 H          19.9870    9.0644    8.5427 H     1238  UNL1238     0.1146
   4952 H          20.1321    9.9703    7.1983 H     1238  UNL1238     0.1146
   4953 N          19.4436    9.5949   10.6167 N.3   1239  UNL1239    -0.3437
   4954 H          18.8399    9.1146    9.9510 H     1239  UNL1239     0.1146
   4955 H          20.0439    8.8771   11.0202 H     1239  UNL1239     0.1146
   4956 H          20.0545   10.1923   10.0614 H     1239  UNL1239     0.1146
   4957 N          19.3963    9.2932   12.8959 N.3   1240  UNL1240    -0.3437
   4958 H          19.4797    8.9575   13.8544 H     1240  UNL1240     0.1146
   4959 H          19.1727   10.2850   12.9641 H     1240  UNL1240     0.1146
   4960 H          20.3332    9.2433   12.4982 H     1240  UNL1240     0.1146
   4961 N          19.4580    9.5559   15.9308 N.3   1241  UNL1241    -0.3437
   4962 H          18.9285    8.8099   15.4820 H     1241  UNL1241     0.1146
   4963 H          20.3692    9.1584   16.1545 H     1241  UNL1241     0.1146
   4964 H          19.6261   10.2548   15.2085 H     1241  UNL1241     0.1146
   4965 N          19.4378    9.3239   18.1159 N.3   1242  UNL1242    -0.3437
   4966 H          18.8570    9.8080   18.7990 H     1242  UNL1242     0.1146
   4967 H          20.1121   10.0115   17.7829 H     1242  UNL1242     0.1146
   4968 H          19.9749    8.6356   18.6414 H     1242  UNL1242     0.1146
   4969 N          19.4114    9.2329   20.8828 N.3   1243  UNL1243    -0.3437
   4970 H          18.9225   10.0308   21.2863 H     1243  UNL1243     0.1146
   4971 H          19.9905    9.6082   20.1330 H     1243  UNL1243     0.1146
   4972 H          20.0574    8.9071   21.6004 H     1243  UNL1243     0.1146
   4973 N          19.4154    9.6065   23.7862 N.3   1244  UNL1244    -0.3437
   4974 H          18.9163    8.9119   23.2323 H     1244  UNL1244     0.1146
   4975 H          20.1080    9.0899   24.3265 H     1244  UNL1244     0.1146
   4976 H          19.9421   10.1706   23.1209 H     1244  UNL1244     0.1146
   4977 N          19.4249    9.6314   26.4104 N.3   1245  UNL1245    -0.3437
   4978 H          18.8855    8.9892   25.8315 H     1245  UNL1245     0.1146
   4979 H          20.0073    9.0479   27.0094 H     1245  UNL1245     0.1146
   4980 H          20.0641   10.1104   25.7778 H     1245  UNL1245     0.1146
   4981 N          19.4231    9.6108   29.0716 N.3   1246  UNL1246    -0.3437
   4982 H          18.8895    9.0098   28.4450 H     1246  UNL1246     0.1146
   4983 H          20.0353    8.9916   29.6009 H     1246  UNL1246     0.1146
   4984 H          20.0339   10.1668   28.4749 H     1246  UNL1246     0.1146
   4985 N          19.3834    9.6027   31.6711 N.3   1247  UNL1247    -0.3437
   4986 H          19.9839    9.1159   32.3350 H     1247  UNL1247     0.1146
   4987 H          20.0031   10.1750   31.0992 H     1247  UNL1247     0.1146
   4988 H          19.0114    8.8853   31.0504 H     1247  UNL1247     0.1146
   4989 N          19.5760    9.6311   35.4084 N.3   1248  UNL1248    -0.3437
   4990 H          18.7655    9.0186   35.3293 H     1248  UNL1248     0.1146
   4991 H          20.3872    9.0173   35.4681 H     1248  UNL1248     0.1146
   4992 H          19.6531   10.1120   34.5133 H     1248  UNL1248     0.1146
   4993 N          19.4834   12.4381    0.0605 N.3   1249  UNL1249    -0.3437
   4994 H          18.7652   12.0312   -0.5370 H     1249  UNL1249     0.1146
   4995 H          20.0148   11.6534    0.4350 H     1249  UNL1249     0.1146
   4996 H          20.1184   12.9353   -0.5624 H     1249  UNL1249     0.1146
   4997 N          19.3570   12.1744    2.3402 N.3   1250  UNL1250    -0.3437
   4998 H          19.1211   12.6225    3.2244 H     1250  UNL1250     0.1146
   4999 H          19.9149   12.8517    1.8221 H     1250  UNL1250     0.1146
   5000 H          19.9888   11.4095    2.5727 H     1250  UNL1250     0.1146
   5001 N          19.4454   12.3902    5.3522 N.3   1251  UNL1251    -0.3437
   5002 H          18.8404   11.9023    4.6931 H     1251  UNL1251     0.1146
   5003 H          20.1220   11.7004    5.6759 H     1251  UNL1251     0.1146
   5004 H          19.9740   13.0652    4.8015 H     1251  UNL1251     0.1146
   5005 N          19.4000   12.1263    7.5981 N.3   1252  UNL1252    -0.3437
   5006 H          18.9582   12.6334    8.3636 H     1252  UNL1252     0.1146
   5007 H          19.9594   12.8120    7.0928 H     1252  UNL1252     0.1146
   5008 H          20.0643   11.4865    8.0315 H     1252  UNL1252     0.1146
   5009 N          19.3505   12.1152   10.3412 N.3   1253  UNL1253    -0.3437
   5010 H          19.7779   11.7827   11.2044 H     1253  UNL1253     0.1146
   5011 H          19.1797   13.1105   10.4775 H     1253  UNL1253     0.1146
   5012 H          20.0737   12.0498    9.6263 H     1253  UNL1253     0.1146
   5013 N          19.4958   12.4593   13.2519 N.3   1254  UNL1254    -0.3437
   5014 H          18.7442   11.9906   12.7481 H     1254  UNL1254     0.1146
   5015 H          20.0564   11.7193   13.6720 H     1254  UNL1254     0.1146
   5016 H          20.0855   12.8889   12.5406 H     1254  UNL1254     0.1146
   5017 N          19.5174   12.4626   15.8991 N.3   1255  UNL1255    -0.3437
   5018 H          20.0826   12.8682   15.1545 H     1255  UNL1255     0.1146
   5019 H          18.7152   12.0329   15.4404 H     1255  UNL1255     0.1146
   5020 H          20.0666   11.6944   16.2819 H     1255  UNL1255     0.1146
   5021 N          19.7681   12.2305   18.0973 N.3   1256  UNL1256    -0.3437
   5022 H          19.9407   11.5271   18.8142 H     1256  UNL1256     0.1146
   5023 H          18.7756   12.1675   17.8752 H     1256  UNL1256     0.1146
   5024 H          19.8973   13.1330   18.5525 H     1256  UNL1256     0.1146
   5025 N          19.3791   12.1146   20.8412 N.3   1257  UNL1257    -0.3437
   5026 H          19.0362   12.9235   21.3574 H     1257  UNL1257     0.1146
   5027 H          20.0750   12.4722   20.1885 H     1257  UNL1257     0.1146
   5028 H          19.8915   11.5478   21.5154 H     1257  UNL1257     0.1146
   5029 N          19.5113   12.4150   23.8565 N.3   1258  UNL1258    -0.3437
   5030 H          18.7233   12.0425   23.3287 H     1258  UNL1258     0.1146
   5031 H          20.1029   11.6158   24.0796 H     1258  UNL1258     0.1146
   5032 H          20.0443   12.9847   23.2010 H     1258  UNL1258     0.1146
   5033 N          19.3905   12.3420   26.0589 N.3   1259  UNL1259    -0.3437
   5034 H          19.0107   11.7784   26.8181 H     1259  UNL1259     0.1146
   5035 H          19.8351   13.1455   26.5007 H     1259  UNL1259     0.1146
   5036 H          20.1455   11.7922   25.6514 H     1259  UNL1259     0.1146
   5037 N          19.3688   12.0970   28.8089 N.3   1260  UNL1260    -0.3437
   5038 H          19.0727   13.0078   29.1570 H     1260  UNL1260     0.1146
   5039 H          20.0374   12.2851   28.0632 H     1260  UNL1260     0.1146
   5040 H          19.9029   11.6681   29.5633 H     1260  UNL1260     0.1146
   5041 N          19.4009   12.4425   31.6725 N.3   1261  UNL1261    -0.3437
   5042 H          18.9529   11.7166   31.1149 H     1261  UNL1261     0.1146
   5043 H          20.0072   11.9564   32.3316 H     1261  UNL1261     0.1146
   5044 H          20.0208   12.9425   31.0368 H     1261  UNL1261     0.1146
   5045 N          19.5767   12.5127   35.3392 N.3   1262  UNL1262    -0.3437
   5046 H          18.8242   11.8562   35.5420 H     1262  UNL1262     0.1146
   5047 H          20.4446   12.0043   35.5022 H     1262  UNL1262     0.1146
   5048 H          19.5363   12.6849   34.3357 H     1262  UNL1262     0.1146
   5049 N          19.4405   14.9353   -0.3538 N.3   1263  UNL1263    -0.3437
   5050 H          18.8470   15.4151    0.3214 H     1263  UNL1263     0.1146
   5051 H          20.0377   15.6527   -0.7626 H     1263  UNL1263     0.1146
   5052 H          20.0567   14.3340    0.1911 H     1263  UNL1263     0.1146
   5053 N          19.4184   14.9123    2.3272 N.3   1264  UNL1264    -0.3437
   5054 H          18.9040   15.5975    2.8788 H     1264  UNL1264     0.1146
   5055 H          20.0783   15.4449    1.7621 H     1264  UNL1264     0.1146
   5056 H          19.9811   14.3824    2.9913 H     1264  UNL1264     0.1146
   5057 N          19.4057   15.2353    5.2997 N.3   1265  UNL1265    -0.3437
   5058 H          18.9389   14.6689    4.5929 H     1265  UNL1265     0.1146
   5059 H          19.9863   14.5924    5.8364 H     1265  UNL1265     0.1146
   5060 H          20.0508   15.8405    4.7937 H     1265  UNL1265     0.1146
   5061 N          19.4344   15.2119    7.9840 N.3   1266  UNL1266    -0.3437
   5062 H          18.8748   14.9328    7.1795 H     1266  UNL1266     0.1146
   5063 H          19.9093   14.3682    8.3020 H     1266  UNL1266     0.1146
   5064 H          20.1632   15.8242    7.6204 H     1266  UNL1266     0.1146
   5065 N          19.7010   15.3320   10.5343 N.3   1267  UNL1267    -0.3437
   5066 H          18.7136   15.4016   10.2923 H     1267  UNL1267     0.1146
   5067 H          19.7831   14.5236   11.1493 H     1267  UNL1267     0.1146
   5068 H          20.1841   15.0800    9.6733 H     1267  UNL1267     0.1146
   5069 N          19.4149   14.9430   12.8666 N.3   1268  UNL1268    -0.3437
   5070 H          18.9132   15.5260   13.5350 H     1268  UNL1268     0.1146
   5071 H          20.0689   15.5619   12.3895 H     1268  UNL1268     0.1146
   5072 H          19.9849   14.3062   13.4216 H     1268  UNL1268     0.1146
   5073 N          19.3821   15.2215   15.5422 N.3   1269  UNL1269    -0.3437
   5074 H          19.0197   14.6603   16.3117 H     1269  UNL1269     0.1146
   5075 H          20.0498   15.8697   15.9575 H     1269  UNL1269     0.1146
   5076 H          19.9301   14.5857   14.9645 H     1269  UNL1269     0.1146
   5077 N          19.3844   15.1576   18.1413 N.3   1270  UNL1270    -0.3437
   5078 H          19.0245   14.6318   18.9365 H     1270  UNL1270     0.1146
   5079 H          19.8592   15.9696   18.5332 H     1270  UNL1270     0.1146
   5080 H          20.1138   14.5781   17.7283 H     1270  UNL1270     0.1146
   5081 N          19.3805   14.9597   21.1358 N.3   1271  UNL1271    -0.3437
   5082 H          20.0790   15.4285   21.7108 H     1271  UNL1271     0.1146
   5083 H          19.0313   15.6643   20.4877 H     1271  UNL1271     0.1146
   5084 H          19.8911   14.2847   20.5682 H     1271  UNL1271     0.1146
   5085 N          19.4101   15.2179   23.8040 N.3   1272  UNL1272    -0.3437
   5086 H          18.9297   14.7865   23.0157 H     1272  UNL1272     0.1146
   5087 H          19.9495   14.4744   24.2454 H     1272  UNL1272     0.1146
   5088 H          20.0925   15.8584   23.4007 H     1272  UNL1272     0.1146
   5089 N          19.3665   15.2389   26.3625 N.3   1273  UNL1273    -0.3437
   5090 H          19.0837   14.5158   25.7025 H     1273  UNL1273     0.1146
   5091 H          19.8898   14.7614   27.0950 H     1273  UNL1273     0.1146
   5092 H          20.0417   15.8211   25.8690 H     1273  UNL1273     0.1146
   5093 N          19.4260   15.2423   29.0816 N.3   1274  UNL1274    -0.3437
   5094 H          18.8825   14.7047   28.4078 H     1274  UNL1274     0.1146
   5095 H          20.0139   14.5682   29.5699 H     1274  UNL1274     0.1146
   5096 H          20.0595   15.8219   28.5330 H     1274  UNL1274     0.1146
   5097 N          19.4046   15.2674   31.6708 N.3   1275  UNL1275    -0.3437
   5098 H          19.9478   14.7186   32.3358 H     1275  UNL1275     0.1146
   5099 H          20.0836   15.7573   31.0900 H     1275  UNL1275     0.1146
   5100 H          18.9459   14.5938   31.0591 H     1275  UNL1275     0.1146
   5101 N          19.7674   15.3243   35.0224 N.3   1276  UNL1276    -0.3437
   5102 H          19.2947   15.2311   35.9204 H     1276  UNL1276     0.1146
   5103 H          20.2874   14.4584   34.8875 H     1276  UNL1276     0.1146
   5104 H          19.0323   15.3233   34.3167 H     1276  UNL1276     0.1146
   5105 N          19.7787   17.7824    0.5443 N.3   1277  UNL1277    -0.3437
   5106 H          19.0809   17.1258    0.1976 H     1277  UNL1277     0.1146
   5107 H          20.2645   18.1365   -0.2785 H     1277  UNL1277     0.1146
   5108 H          19.2577   18.5715    0.9240 H     1277  UNL1277     0.1146
   5109 N          19.4180   17.7901    2.9236 N.3   1278  UNL1278    -0.3437
   5110 H          18.9093   18.3187    3.6308 H     1278  UNL1278     0.1146
   5111 H          20.1118   18.4301    2.5395 H     1278  UNL1278     0.1146
   5112 H          19.9427   17.0775    3.4289 H     1278  UNL1278     0.1146
   5113 N          19.3948   17.7469    5.6218 N.3   1279  UNL1279    -0.3437
   5114 H          18.9724   18.4319    6.2469 H     1279  UNL1279     0.1146
   5115 H          20.0199   18.2714    5.0115 H     1279  UNL1279     0.1146
   5116 H          19.9948   17.1661    6.2059 H     1279  UNL1279     0.1146
   5117 N          19.4300   17.8051    8.1883 N.3   1280  UNL1280    -0.3437
   5118 H          18.8881   18.3194    8.8813 H     1280  UNL1280     0.1146
   5119 H          20.1686   18.4375    7.8835 H     1280  UNL1280     0.1146
   5120 H          19.8951   17.0542    8.6963 H     1280  UNL1280     0.1146
   5121 N          19.3805   17.7428   10.9300 N.3   1281  UNL1281    -0.3437
   5122 H          19.0221   18.5109   11.4956 H     1281  UNL1281     0.1146
   5123 H          19.9994   18.1667   10.2404 H     1281  UNL1281     0.1146
   5124 H          19.9798   17.1959   11.5466 H     1281  UNL1281     0.1146
   5125 N          19.3607   17.7976   13.5492 N.3   1282  UNL1282    -0.3437
   5126 H          19.1075   18.4785   14.2638 H     1282  UNL1282     0.1146
   5127 H          20.0226   18.2688   12.9342 H     1282  UNL1282     0.1146
   5128 H          19.8909   17.0713   14.0286 H     1282  UNL1282     0.1146
   5129 N          19.5209   18.1778   16.4179 N.3   1283  UNL1283    -0.3437
   5130 H          20.3574   18.1566   15.8364 H     1283  UNL1283     0.1146
   5131 H          18.7906   17.7176   15.8763 H     1283  UNL1283     0.1146
   5132 H          19.7129   17.5642   17.2086 H     1283  UNL1283     0.1146
   5133 N          19.7979   18.1190   20.9623 N.3   1284  UNL1284    -0.3437
   5134 H          18.9370   18.4162   21.4195 H     1284  UNL1284     0.1146
   5135 H          20.1229   17.3029   21.4787 H     1284  UNL1284     0.1146
   5136 H          19.5239   17.7782   20.0419 H     1284  UNL1284     0.1146
   5137 N          19.3727   18.0484   23.7466 N.3   1285  UNL1285    -0.3437
   5138 H          19.0628   17.2213   23.2383 H     1285  UNL1285     0.1146
   5139 H          20.0735   17.7234   24.4112 H     1285  UNL1285     0.1146
   5140 H          19.8727   18.6231   23.0697 H     1285  UNL1285     0.1146
   5141 N          19.3814   18.0716   26.3734 N.3   1286  UNL1286    -0.3437
   5142 H          19.0207   17.3313   25.7732 H     1286  UNL1286     0.1146
   5143 H          19.9471   17.6076   27.0826 H     1286  UNL1286     0.1146
   5144 H          20.0327   18.6057   25.7999 H     1286  UNL1286     0.1146
   5145 N          19.4298   18.0861   29.0618 N.3   1287  UNL1287    -0.3437
   5146 H          18.8745   17.4985   28.4416 H     1287  UNL1287     0.1146
   5147 H          19.9899   17.4484   29.6258 H     1287  UNL1287     0.1146
   5148 H          20.0876   18.5833   28.4632 H     1287  UNL1287     0.1146
   5149 N          19.3925   18.0971   31.6335 N.3   1288  UNL1288    -0.3437
   5150 H          18.9842   17.3105   31.1305 H     1288  UNL1288     0.1146
   5151 H          19.9360   17.6922   32.3944 H     1288  UNL1288     0.1146
   5152 H          20.0691   18.5165   30.9973 H     1288  UNL1288     0.1146
   5153 N          19.4271   18.1369   35.1105 N.3   1289  UNL1289    -0.3437
   5154 H          20.3207   18.4048   35.5204 H     1289  UNL1289     0.1146
   5155 H          19.6511   17.5580   34.3023 H     1289  UNL1289     0.1146
   5156 H          18.9829   17.5165   35.7859 H     1289  UNL1289     0.1146
   5157 N          17.4448   20.5618   -0.3471 N.3   1290  UNL1290    -0.3437
   5158 H          16.8402   21.1455    0.2292 H     1290  UNL1290     0.1146
   5159 H          18.1102   21.1956   -0.7875 H     1290  UNL1290     0.1146
   5160 H          17.9866   19.9924    0.3015 H     1290  UNL1290     0.1146
   5161 N          19.4195   20.5805    2.3004 N.3   1291  UNL1291    -0.3437
   5162 H          18.8991   21.0899    3.0132 H     1291  UNL1291     0.1146
   5163 H          20.0150   21.2687    1.8418 H     1291  UNL1291     0.1146
   5164 H          20.0482   19.9564    2.8040 H     1291  UNL1291     0.1146
   5165 N          19.8058   20.8302    5.3090 N.3   1292  UNL1292    -0.3437
   5166 H          20.0815   20.8347    4.3280 H     1292  UNL1292     0.1146
   5167 H          18.9393   21.3639    5.3598 H     1292  UNL1292     0.1146
   5168 H          19.5552   19.8666    5.5259 H     1292  UNL1292     0.1146
   5169 N          19.3940   20.5528    7.9039 N.3   1293  UNL1293    -0.3437
   5170 H          20.0091   21.0226    8.5668 H     1293  UNL1293     0.1146
   5171 H          18.9748   21.2897    7.3387 H     1293  UNL1293     0.1146
   5172 H          20.0039   20.0303    7.2767 H     1293  UNL1293     0.1146
   5173 N          19.3851   20.5898   10.5709 N.3   1294  UNL1294    -0.3437
   5174 H          20.0903   21.0399   11.1526 H     1294  UNL1294     0.1146
   5175 H          19.0157   21.3190    9.9624 H     1294  UNL1294     0.1146
   5176 H          19.8907   19.9466    9.9634 H     1294  UNL1294     0.1146
   5177 N          19.3899   20.8554   13.2199 N.3   1295  UNL1295    -0.3437
   5178 H          18.9944   20.1830   12.5643 H     1295  UNL1295     0.1146
   5179 H          20.0745   20.3405   13.7717 H     1295  UNL1295     0.1146
   5180 H          19.9231   21.5165   12.6567 H     1295  UNL1295     0.1146
   5181 N          19.4098   20.6093   15.4945 N.3   1296  UNL1296    -0.3437
   5182 H          18.9280   20.9960   16.3049 H     1296  UNL1296     0.1146
   5183 H          19.9760   21.3674   15.1162 H     1296  UNL1296     0.1146
   5184 H          20.0680   19.9227   15.8603 H     1296  UNL1296     0.1146
   5185 N          19.4083   20.5912   18.1484 N.3   1297  UNL1297    -0.3437
   5186 H          18.9363   21.2071   18.8089 H     1297  UNL1297     0.1146
   5187 H          20.0984   21.1685   17.6700 H     1297  UNL1297     0.1146
   5188 H          19.9388   19.9285   18.7120 H     1297  UNL1297     0.1146
   5189 N          19.4015   20.5723   20.8120 N.3   1298  UNL1298    -0.3437
   5190 H          18.9515   21.2185   21.4588 H     1298  UNL1298     0.1146
   5191 H          20.0370   21.1355   20.2488 H     1298  UNL1298     0.1146
   5192 H          19.9919   19.9691   21.3830 H     1298  UNL1298     0.1146
   5193 N          19.3845   20.5783   23.4693 N.3   1299  UNL1299    -0.3437
   5194 H          20.0763   21.0001   22.8515 H     1299  UNL1299     0.1146
   5195 H          19.9059   19.9783   24.1069 H     1299  UNL1299     0.1146
   5196 H          19.0151   21.3388   24.0382 H     1299  UNL1299     0.1146
   5197 N          19.3934   20.5494   26.1303 N.3   1300  UNL1300    -0.3437
   5198 H          18.9785   21.2617   26.7294 H     1300  UNL1300     0.1146
   5199 H          19.9639   21.0511   25.4511 H     1300  UNL1300     0.1146
   5200 H          20.0460   20.0331   26.7184 H     1300  UNL1300     0.1146
   5201 N          19.4063   20.5491   28.7530 N.3   1301  UNL1301    -0.3437
   5202 H          18.9365   21.2606   29.3109 H     1301  UNL1301     0.1146
   5203 H          20.0364   21.0517   28.1295 H     1301  UNL1301     0.1146
   5204 H          20.0026   20.0339   29.3991 H     1301  UNL1301     0.1146
   5205 N          19.3882   20.5681   31.3970 N.3   1302  UNL1302    -0.3437
   5206 H          18.9949   21.2840   32.0063 H     1302  UNL1302     0.1146
   5207 H          20.0190   21.0552   30.7620 H     1302  UNL1302     0.1146
   5208 H          19.9797   19.9882   31.9904 H     1302  UNL1302     0.1146
   5209 N          19.6573   20.4354   34.1993 N.3   1303  UNL1303    -0.3437
   5210 H          18.7651   20.6172   33.7416 H     1303  UNL1303     0.1146
   5211 H          20.3560   20.9533   33.6682 H     1303  UNL1303     0.1146
   5212 H          19.6034   20.8895   35.1099 H     1303  UNL1303     0.1146
   5213 N          19.4068   23.3933   -0.3218 N.3   1304  UNL1304    -0.3437
   5214 H          18.9376   24.0496    0.3007 H     1304  UNL1304     0.1146
   5215 H          20.0730   23.9446   -0.8608 H     1304  UNL1304     0.1146
   5216 H          19.9644   22.7869    0.2781 H     1304  UNL1304     0.1146
   5217 N          19.4005   23.3991    2.3211 N.3   1305  UNL1305    -0.3437
   5218 H          18.9550   24.0328    2.9832 H     1305  UNL1305     0.1146
   5219 H          20.0461   23.9697    1.7770 H     1305  UNL1305     0.1146
   5220 H          19.9802   22.7730    2.8782 H     1305  UNL1305     0.1146
   5221 N          19.3892   23.3949    4.9800 N.3   1306  UNL1306    -0.3437
   5222 H          18.9922   24.0902    5.6103 H     1306  UNL1306     0.1146
   5223 H          20.0326   23.9008    4.3730 H     1306  UNL1306     0.1146
   5224 H          19.9679   22.7885    5.5595 H     1306  UNL1306     0.1146
   5225 N          19.3999   23.3967    7.6055 N.3   1307  UNL1307    -0.3437
   5226 H          18.9561   24.0191    8.2794 H     1307  UNL1307     0.1146
   5227 H          20.0256   23.9812    7.0530 H     1307  UNL1307     0.1146
   5228 H          20.0002   22.7774    8.1481 H     1307  UNL1307     0.1146
   5229 N          19.3917   23.3992   10.2541 N.3   1308  UNL1308    -0.3437
   5230 H          18.9828   24.0515   10.9216 H     1308  UNL1308     0.1146
   5231 H          20.0236   23.9498    9.6745 H     1308  UNL1308     0.1146
   5232 H          19.9837   22.7739   10.7991 H     1308  UNL1308     0.1146
   5233 N          19.3911   23.3725   12.9254 N.3   1309  UNL1309    -0.3437
   5234 H          18.9848   24.1324   13.4694 H     1309  UNL1309     0.1146
   5235 H          20.0147   23.8126   12.2502 H     1309  UNL1309     0.1146
   5236 H          19.9913   22.8571   13.5676 H     1309  UNL1309     0.1146
   5237 N          19.3942   23.3978   15.5339 N.3   1310  UNL1310    -0.3437
   5238 H          18.9746   24.0479   16.1970 H     1310  UNL1310     0.1146
   5239 H          20.0281   23.9520   14.9600 H     1310  UNL1310     0.1146
   5240 H          19.9849   22.7768   16.0851 H     1310  UNL1310     0.1146
   5241 N          19.4136   23.4008   18.1507 N.3   1311  UNL1311    -0.3437
   5242 H          18.9205   24.0313   18.7813 H     1311  UNL1311     0.1146
   5243 H          20.1002   23.9732   17.6615 H     1311  UNL1311     0.1146
   5244 H          19.9475   22.7691   18.7458 H     1311  UNL1311     0.1146
   5245 N          19.4297   23.3829   20.7910 N.3   1312  UNL1312    -0.3437
   5246 H          18.8728   23.9583   21.4212 H     1312  UNL1312     0.1146
   5247 H          20.0543   24.0239   20.3036 H     1312  UNL1312     0.1146
   5248 H          20.0251   22.8094   21.3867 H     1312  UNL1312     0.1146
   5249 N          19.4058   23.3940   23.4460 N.3   1313  UNL1313    -0.3437
   5250 H          18.9381   24.0134   24.1062 H     1313  UNL1313     0.1146
   5251 H          20.0389   23.9838   22.9077 H     1313  UNL1313     0.1146
   5252 H          19.9990   22.7832   24.0058 H     1313  UNL1313     0.1146
   5253 N          19.3956   23.3961   26.0970 N.3   1314  UNL1314    -0.3437
   5254 H          18.9698   24.0442   26.7581 H     1314  UNL1314     0.1146
   5255 H          20.0267   23.9540   25.5235 H     1314  UNL1314     0.1146
   5256 H          19.9896   22.7802   26.6505 H     1314  UNL1314     0.1146
   5257 N          19.3938   23.3939   28.7422 N.3   1315  UNL1315    -0.3437
   5258 H          18.9756   24.0531   29.3971 H     1315  UNL1315     0.1146
   5259 H          20.0200   23.9416   28.1537 H     1315  UNL1315     0.1146
   5260 H          19.9924   22.7859   29.2995 H     1315  UNL1315     0.1146
   5261 N          19.3847   23.4036   31.3860 N.3   1316  UNL1316    -0.3437
   5262 H          19.0068   24.0617   32.0661 H     1316  UNL1316     0.1146
   5263 H          20.0110   23.9436   30.7906 H     1316  UNL1316     0.1146
   5264 H          19.9792   22.7655   31.9131 H     1316  UNL1316     0.1146
   5265 N          19.4319   23.7885   34.2052 N.3   1317  UNL1317    -0.3437
   5266 H          19.7328   23.4203   35.1064 H     1317  UNL1317     0.1146
   5267 H          20.2826   23.9372   33.6643 H     1317  UNL1317     0.1146
   5268 H          18.9346   23.0285   33.7432 H     1317  UNL1317     0.1146
   5269 N          19.3886   26.2449   -0.3258 N.3   1318  UNL1318    -0.3437
   5270 H          18.9999   26.8793    0.3706 H     1318  UNL1318     0.1146
   5271 H          20.0798   26.7857   -0.8437 H     1318  UNL1318     0.1146
   5272 H          19.9135   25.5437    0.1950 H     1318  UNL1318     0.1146
   5273 N          19.3658   26.3871    2.6744 N.3   1319  UNL1319    -0.3437
   5274 H          19.1317   25.8906    1.8159 H     1319  UNL1319     0.1146
   5275 H          20.1510   25.8837    3.0848 H     1319  UNL1319     0.1146
   5276 H          19.7333   27.2921    2.3842 H     1319  UNL1319     0.1146
   5277 N          19.3839   26.2764    4.9434 N.3   1320  UNL1320    -0.3437
   5278 H          19.0103   26.7186    5.7820 H     1320  UNL1320     0.1146
   5279 H          20.0227   26.9539    4.5295 H     1320  UNL1320     0.1146
   5280 H          19.9649   25.5046    5.2679 H     1320  UNL1320     0.1146
   5281 N          19.3898   26.5226    7.9121 N.3   1321  UNL1321    -0.3437
   5282 H          18.9891   25.8028    7.3124 H     1321  UNL1321     0.1146
   5283 H          20.0182   26.0378    8.5513 H     1321  UNL1321     0.1146
   5284 H          19.9847   27.0904    7.3103 H     1321  UNL1321     0.1146
   5285 N          19.4053   26.4660   10.6140 N.3   1322  UNL1322    -0.3437
   5286 H          18.9398   26.0260    9.8215 H     1322  UNL1322     0.1146
   5287 H          20.0401   25.7642   10.9920 H     1322  UNL1322     0.1146
   5288 H          19.9966   27.1974   10.2218 H     1322  UNL1322     0.1146
   5289 N          19.4058   26.2345   12.8666 N.3   1323  UNL1323    -0.3437
   5290 H          18.9381   26.7738   13.5937 H     1323  UNL1323     0.1146
   5291 H          20.0391   26.8822   12.3998 H     1323  UNL1323     0.1146
   5292 H          19.9988   25.5631   13.3525 H     1323  UNL1323     0.1146
   5293 N          19.3864   26.4505   15.8839 N.3   1324  UNL1324    -0.3437
   5294 H          19.0017   26.0135   15.0476 H     1324  UNL1324     0.1146
   5295 H          20.0266   25.7685   16.2881 H     1324  UNL1324     0.1146
   5296 H          19.9671   27.2211   15.5564 H     1324  UNL1324     0.1146
   5297 N          19.4288   26.2682   18.1100 N.3   1325  UNL1325    -0.3437
   5298 H          18.8776   26.6730   18.8654 H     1325  UNL1325     0.1146
   5299 H          20.0936   26.9880   17.8304 H     1325  UNL1325     0.1146
   5300 H          19.9818   25.5243   18.5334 H     1325  UNL1325     0.1146
   5301 N          19.3952   26.2140   20.8176 N.3   1326  UNL1326    -0.3437
   5302 H          18.9718   26.8850   21.4570 H     1326  UNL1326     0.1146
   5303 H          20.0382   26.7484   20.2350 H     1326  UNL1326     0.1146
   5304 H          19.9766   25.6062   21.3929 H     1326  UNL1326     0.1146
   5305 N          19.4025   26.2174   23.4466 N.3   1327  UNL1327    -0.3437
   5306 H          18.9481   26.8316   24.1210 H     1327  UNL1327     0.1146
   5307 H          20.0328   26.8095   22.9076 H     1327  UNL1327     0.1146
   5308 H          19.9984   25.5950   23.9906 H     1327  UNL1327     0.1146
   5309 N          19.3890   26.2207   26.1011 N.3   1328  UNL1328    -0.3437
   5310 H          18.9929   26.8925   26.7571 H     1328  UNL1328     0.1146
   5311 H          20.0331   26.7482   25.5135 H     1328  UNL1328     0.1146
   5312 H          19.9668   25.5922   26.6574 H     1328  UNL1328     0.1146
   5313 N          19.3916   26.2127   28.7462 N.3   1329  UNL1329    -0.3437
   5314 H          18.9834   26.8929   29.3858 H     1329  UNL1329     0.1146
   5315 H          20.0238   26.7377   28.1437 H     1329  UNL1329     0.1146
   5316 H          19.9831   25.6103   29.3168 H     1329  UNL1329     0.1146
   5317 N          19.3854   26.2302   31.3792 N.3   1330  UNL1330    -0.3437
   5318 H          19.0042   26.8343   32.1059 H     1330  UNL1330     0.1146
   5319 H          19.9954   26.8201   30.8149 H     1330  UNL1330     0.1146
   5320 H          19.9968   25.5689   31.8558 H     1330  UNL1330     0.1146
   5321 N          19.4347   26.6088   34.2155 N.3   1331  UNL1331    -0.3437
   5322 H          18.8990   25.8423   33.8108 H     1331  UNL1331     0.1146
   5323 H          19.8133   26.2545   35.0927 H     1331  UNL1331     0.1146
   5324 H          20.2348   26.7479   33.6001 H     1331  UNL1331     0.1146
   5325 N          19.3933   30.0561   -0.3252 N.3   1332  UNL1332    -0.3437
   5326 H          18.9869   30.7265    0.3257 H     1332  UNL1332     0.1146
   5327 H          20.1007   30.5680   -0.8506 H     1332  UNL1332     0.1146
   5328 H          19.9009   29.3821    0.2462 H     1332  UNL1332     0.1146
   5329 N          19.4473   30.0515    2.2706 N.3   1333  UNL1333    -0.3437
   5330 H          18.8328   30.4263    2.9919 H     1333  UNL1333     0.1146
   5331 H          20.0134   30.8353    1.9487 H     1333  UNL1333     0.1146
   5332 H          20.0883   29.4196    2.7482 H     1333  UNL1333     0.1146
   5333 N          19.3487   30.1381    4.9744 N.3   1334  UNL1334    -0.3437
   5334 H          19.1610   30.4575    5.9237 H     1334  UNL1334     0.1146
   5335 H          19.9571   30.8408    4.5567 H     1334  UNL1334     0.1146
   5336 H          19.9151   29.2962    5.0681 H     1334  UNL1334     0.1146
   5337 N          19.4030   28.9621    7.7334 N.3   1335  UNL1335    -0.3437
   5338 H          18.9464   29.8623    7.8731 H     1335  UNL1335     0.1146
   5339 H          20.0262   29.0838    6.9364 H     1335  UNL1335     0.1146
   5340 H          20.0062   28.8245    8.5431 H     1335  UNL1335     0.1146
   5341 N          19.4179   30.1014   10.1905 N.3   1336  UNL1336    -0.3437
   5342 H          18.9046   30.4602   10.9944 H     1336  UNL1336     0.1146
   5343 H          20.0703   30.8371    9.9227 H     1336  UNL1336     0.1146
   5344 H          19.9890   29.3340   10.5416 H     1336  UNL1336     0.1146
   5345 N          19.4179   30.1014   12.8314 N.3   1337  UNL1337    -0.3437
   5346 H          18.9046   30.4602   13.6352 H     1337  UNL1337     0.1146
   5347 H          20.0703   30.8371   12.5636 H     1337  UNL1337     0.1146
   5348 H          19.9890   29.3340   13.1825 H     1337  UNL1337     0.1146
   5349 N          19.4264   30.1021   15.4655 N.3   1338  UNL1338    -0.3437
   5350 H          18.8833   30.4587   16.2505 H     1338  UNL1338     0.1146
   5351 H          20.0883   30.8384   15.2244 H     1338  UNL1338     0.1146
   5352 H          19.9838   29.3336   15.8356 H     1338  UNL1338     0.1146
   5353 N          19.4015   30.0403   18.1635 N.3   1339  UNL1339    -0.3437
   5354 H          18.9564   30.7129   18.7863 H     1339  UNL1339     0.1146
   5355 H          20.0888   30.5669   17.6262 H     1339  UNL1339     0.1146
   5356 H          19.9351   29.4126   18.7633 H     1339  UNL1339     0.1146
   5357 N          19.3355   30.1464   20.8398 N.3   1340  UNL1340    -0.3437
   5358 H          19.2421   30.5735   21.7602 H     1340  UNL1340     0.1146
   5359 H          19.9730   30.7445   20.3160 H     1340  UNL1340     0.1146
   5360 H          19.8312   29.2683   20.9866 H     1340  UNL1340     0.1146
   5361 N          19.4116   29.1796   23.3850 N.3   1341  UNL1341    -0.3437
   5362 H          20.2803   28.6779   23.2060 H     1341  UNL1341     0.1146
   5363 H          19.0067   28.7522   24.2168 H     1341  UNL1341     0.1146
   5364 H          19.6832   30.1230   23.6580 H     1341  UNL1341     0.1146
   5365 N          19.4179   30.1014   26.0355 N.3   1342  UNL1342    -0.3437
   5366 H          18.9046   30.4602   26.8394 H     1342  UNL1342     0.1146
   5367 H          20.0703   30.8371   25.7677 H     1342  UNL1342     0.1146
   5368 H          19.9890   29.3340   26.3866 H     1342  UNL1342     0.1146
   5369 N          19.4176   30.1018   28.6765 N.3   1343  UNL1343    -0.3437
   5370 H          18.9059   30.4658   29.4790 H     1343  UNL1343     0.1146
   5371 H          20.0743   30.8330   28.4069 H     1343  UNL1343     0.1146
   5372 H          19.9840   29.3321   29.0300 H     1343  UNL1343     0.1146
   5373 N          19.3815   30.1241   31.3437 N.3   1344  UNL1344    -0.3437
   5374 H          19.0199   30.4606   32.2350 H     1344  UNL1344     0.1146
   5375 H          20.0284   30.8395   31.0149 H     1344  UNL1344     0.1146
   5376 H          19.9521   29.3085   31.5621 H     1344  UNL1344     0.1146
   5377 N          19.3792   29.0730   34.0110 N.3   1345  UNL1345    -0.3437
   5378 H          19.0357   29.4583   34.8895 H     1345  UNL1345     0.1146
   5379 H          19.8904   29.8270   33.5543 H     1345  UNL1345     0.1146
   5380 H          20.0765   28.3743   34.2643 H     1345  UNL1345     0.1146
   5381 N          22.0339    1.1034    0.1035 N.3   1346  UNL1346    -0.3437
   5382 H          21.2665    0.8329   -0.5099 H     1346  UNL1346     0.1146
   5383 H          22.5937    0.2630    0.2404 H     1346  UNL1346     0.1146
   5384 H          22.6145    1.7424   -0.4378 H     1346  UNL1346     0.1146
   5385 N          21.9583    1.1665    2.6513 N.3   1347  UNL1347    -0.3437
   5386 H          21.4245    0.6421    1.9596 H     1347  UNL1347     0.1146
   5387 H          22.4440    0.4718    3.2168 H     1347  UNL1347     0.1146
   5388 H          22.6818    1.6613    2.1317 H     1347  UNL1347     0.1146
   5389 N          22.0239    1.1434    5.3582 N.3   1348  UNL1348    -0.3437
   5390 H          21.3020    0.9177    4.6753 H     1348  UNL1348     0.1146
   5391 H          22.4258    0.2526    5.6469 H     1348  UNL1348     0.1146
   5392 H          22.7569    1.6280    4.8422 H     1348  UNL1348     0.1146
   5393 N          22.0030    1.1636    7.9721 N.3   1349  UNL1349    -0.3437
   5394 H          21.3464    0.8606    7.2542 H     1349  UNL1349     0.1146
   5395 H          22.3829    0.3118    8.3828 H     1349  UNL1349     0.1146
   5396 H          22.7762    1.6057    7.4770 H     1349  UNL1349     0.1146
   5397 N          21.9129    0.9647   10.2098 N.3   1350  UNL1350    -0.3437
   5398 H          21.5598    0.9090   11.1640 H     1350  UNL1350     0.1146
   5399 H          22.4271    1.8425   10.1513 H     1350  UNL1350     0.1146
   5400 H          22.6089    0.2254   10.1243 H     1350  UNL1350     0.1146
   5401 N          21.9002    1.1726   13.0824 N.3   1351  UNL1351    -0.3437
   5402 H          21.6135    0.2555   12.7431 H     1351  UNL1351     0.1146
   5403 H          22.3900    1.0067   13.9605 H     1351  UNL1351     0.1146
   5404 H          22.6049    1.5069   12.4266 H     1351  UNL1351     0.1146
   5405 N          22.0213    1.0533   15.9615 N.3   1352  UNL1352    -0.3437
   5406 H          21.3967    0.4458   15.4331 H     1352  UNL1352     0.1146
   5407 H          22.9163    0.5679   16.0033 H     1352  UNL1352     0.1146
   5408 H          22.1743    1.8746   15.3780 H     1352  UNL1352     0.1146
   5409 N          22.3146    0.9485   18.1093 N.3   1353  UNL1353    -0.3437
   5410 H          22.7262    1.4690   18.8826 H     1353  UNL1353     0.1146
   5411 H          21.9942    0.0654   18.5040 H     1353  UNL1353     0.1146
   5412 H          21.4736    1.4588   17.8434 H     1353  UNL1353     0.1146
   5413 N          22.2713    0.9490   20.7202 N.3   1354  UNL1354    -0.3437
   5414 H          21.4077    1.4792   20.6132 H     1354  UNL1354     0.1146
   5415 H          22.8230    1.4483   21.4164 H     1354  UNL1354     0.1146
   5416 H          22.0066    0.0652   21.1527 H     1354  UNL1354     0.1146
   5417 N          22.3245    0.8645   23.4325 N.3   1355  UNL1355    -0.3437
   5418 H          22.7537    1.2521   24.2715 H     1355  UNL1355     0.1146
   5419 H          21.6270    0.1962   23.7569 H     1355  UNL1355     0.1146
   5420 H          21.8035    1.6288   23.0049 H     1355  UNL1355     0.1146
   5421 N          21.8974    1.0608   26.4273 N.3   1356  UNL1356    -0.3437
   5422 H          22.4852    1.8567   26.1837 H     1356  UNL1356     0.1146
   5423 H          21.6127    0.6410   25.5435 H     1356  UNL1356     0.1146
   5424 H          22.5133    0.3832   26.8745 H     1356  UNL1356     0.1146
   5425 N          21.8878    0.9199   28.7375 N.3   1357  UNL1357    -0.3437
   5426 H          22.5171    1.5650   28.2619 H     1357  UNL1357     0.1146
   5427 H          22.4466    0.0987   28.9649 H     1357  UNL1357     0.1146
   5428 H          21.6571    1.3580   29.6281 H     1357  UNL1357     0.1146
   5429 N          19.9747    0.9950   31.5391 N.3   1358  UNL1358    -0.3437
   5430 H          20.3393    0.0871   31.2542 H     1358  UNL1358     0.1146
   5431 H          20.3758    1.1834   32.4568 H     1358  UNL1358     0.1146
   5432 H          20.3908    1.6761   30.9056 H     1358  UNL1358     0.1146
   5433 N          21.8744   -0.8619   34.1674 N.3   1359  UNL1359    -0.3437
   5434 H          21.7584   -1.8381   33.8993 H     1359  UNL1359     0.1146
   5435 H          22.2828   -0.8736   35.1010 H     1359  UNL1359     0.1146
   5436 H          22.5931   -0.4848   33.5513 H     1359  UNL1359     0.1146
   5437 N          21.9112    3.6340   -0.2579 N.3   1360  UNL1360    -0.3437
   5438 H          21.5580    4.4669    0.2110 H     1360  UNL1360     0.1146
   5439 H          22.5455    3.9673   -0.9825 H     1360  UNL1360     0.1146
   5440 H          22.4938    3.1526    0.4255 H     1360  UNL1360     0.1146
   5441 N          21.9401    3.9716    2.6470 N.3   1361  UNL1361    -0.3437
   5442 H          21.4619    3.3088    2.0384 H     1361  UNL1361     0.1146
   5443 H          22.5617    3.4165    3.2334 H     1361  UNL1361     0.1146
   5444 H          22.5449    4.5238    2.0406 H     1361  UNL1361     0.1146
   5445 N          21.9523    3.9175    5.3409 N.3   1362  UNL1362    -0.3437
   5446 H          21.4291    3.4585    4.5966 H     1362  UNL1362     0.1146
   5447 H          22.6014    3.2189    5.7000 H     1362  UNL1362     0.1146
   5448 H          22.5259    4.6259    4.8853 H     1362  UNL1362     0.1146
   5449 N          21.9546    3.6471    7.5909 N.3   1363  UNL1363    -0.3437
   5450 H          21.4216    4.2132    8.2496 H     1363  UNL1363     0.1146
   5451 H          22.5606    4.2952    7.0898 H     1363  UNL1363     0.1146
   5452 H          22.5717    3.0653    8.1557 H     1363  UNL1363     0.1146
   5453 N          21.9518    3.9698   10.5842 N.3   1364  UNL1364    -0.3437
   5454 H          21.4291    3.3672    9.9502 H     1364  UNL1364     0.1146
   5455 H          22.5616    3.3529   11.1190 H     1364  UNL1364     0.1146
   5456 H          22.5661    4.5309    9.9959 H     1364  UNL1364     0.1146
   5457 N          21.9432    3.6763   12.8610 N.3   1365  UNL1365    -0.3437
   5458 H          21.4533    4.1516   13.6177 H     1365  UNL1365     0.1146
   5459 H          22.5380    4.3801   12.4259 H     1365  UNL1365     0.1146
   5460 H          22.5742    3.0128   13.3081 H     1365  UNL1365     0.1146
   5461 N          21.9461    3.9344   15.8886 N.3   1366  UNL1366    -0.3437
   5462 H          21.4451    3.4189   15.1663 H     1366  UNL1366     0.1146
   5463 H          22.5794    3.2649   16.3235 H     1366  UNL1366     0.1146
   5464 H          22.5381    4.6026   15.3974 H     1366  UNL1366     0.1146
   5465 N          21.9656    3.6824   18.1199 N.3   1367  UNL1367    -0.3437
   5466 H          21.4033    4.2231   18.7755 H     1367  UNL1367     0.1146
   5467 H          22.6744    4.3220   17.7637 H     1367  UNL1367     0.1146
   5468 H          22.4652    2.9933   18.6802 H     1367  UNL1367     0.1146
   5469 N          21.8922    3.6776   20.8497 N.3   1368  UNL1368    -0.3437
   5470 H          21.6457    4.4950   21.4059 H     1368  UNL1368     0.1146
   5471 H          22.5791    3.9979   20.1685 H     1368  UNL1368     0.1146
   5472 H          22.3917    3.0503   21.4784 H     1368  UNL1368     0.1146
   5473 N          21.9050    3.7008   23.4517 N.3   1369  UNL1369    -0.3437
   5474 H          21.5839    4.2919   24.2171 H     1369  UNL1369     0.1146
   5475 H          22.5611    4.2671   22.9157 H     1369  UNL1369     0.1146
   5476 H          22.4586    2.9610   23.8814 H     1369  UNL1369     0.1146
   5477 N          21.9290    3.9605   26.4121 N.3   1370  UNL1370    -0.3437
   5478 H          21.4967    3.2770   25.7922 H     1370  UNL1370     0.1146
   5479 H          22.5695    3.4355   27.0059 H     1370  UNL1370     0.1146
   5480 H          22.5134    4.5477   25.8189 H     1370  UNL1370     0.1146
   5481 N          21.9354    3.9577   29.0634 N.3   1371  UNL1371    -0.3437
   5482 H          21.4762    3.3248   28.4100 H     1371  UNL1371     0.1146
   5483 H          22.5632    3.3795   29.6202 H     1371  UNL1371     0.1146
   5484 H          22.5339    4.5587   28.4988 H     1371  UNL1371     0.1146
   5485 N          21.9035    3.9385   31.6788 N.3   1372  UNL1372    -0.3437
   5486 H          22.5540    3.4848   32.3186 H     1372  UNL1372     0.1146
   5487 H          22.4613    4.5847   31.1225 H     1372  UNL1372     0.1146
   5488 H          21.5898    3.2128   31.0358 H     1372  UNL1372     0.1146
   5489 N          22.1030    1.5391   34.0532 N.3   1373  UNL1373    -0.3437
   5490 H          21.3746    2.1855   33.7534 H     1373  UNL1373     0.1146
   5491 H          22.9888    1.9969   33.8428 H     1373  UNL1373     0.1146
   5492 H          22.0421    1.4993   35.0696 H     1373  UNL1373     0.1146
   5493 N          21.9455    6.5541   -0.3731 N.3   1374  UNL1374    -0.3437
   5494 H          21.4496    6.7389    0.4976 H     1374  UNL1374     0.1146
   5495 H          22.4962    7.3896   -0.5655 H     1374  UNL1374     0.1146
   5496 H          22.6173    5.8173   -0.1629 H     1374  UNL1374     0.1146
   5497 N          22.3516    6.6147    2.6820 N.3   1375  UNL1375    -0.3437
   5498 H          21.5695    6.0224    2.9575 H     1375  UNL1375     0.1146
   5499 H          22.6188    6.3101    1.7470 H     1375  UNL1375     0.1146
   5500 H          21.9687    7.5527    2.5729 H     1375  UNL1375     0.1146
   5501 N          21.9465    6.7771    5.3084 N.3   1376  UNL1376    -0.3437
   5502 H          21.4691    6.0280    4.8092 H     1376  UNL1376     0.1146
   5503 H          22.7140    6.3346    5.8119 H     1376  UNL1376     0.1146
   5504 H          22.3790    7.3601    4.5932 H     1376  UNL1376     0.1146
   5505 N          21.9489    6.7276    7.9838 N.3   1377  UNL1377    -0.3437
   5506 H          21.4379    6.2977    7.2141 H     1377  UNL1377     0.1146
   5507 H          22.5969    6.0175    8.3221 H     1377  UNL1377     0.1146
   5508 H          22.5249    7.4570    7.5660 H     1377  UNL1377     0.1146
   5509 N          21.9535    6.4416   10.2588 N.3   1378  UNL1378    -0.3437
   5510 H          21.4251    7.1300   10.7929 H     1378  UNL1378     0.1146
   5511 H          22.5878    6.9736    9.6647 H     1378  UNL1378     0.1146
   5512 H          22.5422    5.9546   10.9330 H     1378  UNL1378     0.1146
   5513 N          21.9306    6.7203   13.2523 N.3   1379  UNL1379    -0.3437
   5514 H          21.4915    6.2819   12.4441 H     1379  UNL1379     0.1146
   5515 H          22.5733    6.0272   13.6332 H     1379  UNL1379     0.1146
   5516 H          22.5132    7.4704   12.8830 H     1379  UNL1379     0.1146
   5517 N          21.9853    6.7531   15.9194 N.3   1380  UNL1380    -0.3437
   5518 H          21.3718    6.1785   15.3433 H     1380  UNL1380     0.1146
   5519 H          22.7390    6.1394   16.2256 H     1380  UNL1380     0.1146
   5520 H          22.4125    7.4288   15.2875 H     1380  UNL1380     0.1146
   5521 N          21.9484    6.5252   18.1216 N.3   1381  UNL1381    -0.3437
   5522 H          21.4505    7.0485   18.8403 H     1381  UNL1381     0.1146
   5523 H          22.6718    7.1505   17.7691 H     1381  UNL1381     0.1146
   5524 H          22.4379    5.7756   18.6083 H     1381  UNL1381     0.1146
   5525 N          21.9373    6.7752   20.8060 N.3   1382  UNL1382    -0.3437
   5526 H          21.4701    6.1800   21.4885 H     1382  UNL1382     0.1146
   5527 H          22.5552    7.3841   21.3407 H     1382  UNL1382     0.1146
   5528 H          22.5460    6.1606   20.2673 H     1382  UNL1382     0.1146
   5529 N          22.2874    6.4913   23.4071 N.3   1383  UNL1383    -0.3437
   5530 H          22.7769    6.5529   24.2987 H     1383  UNL1383     0.1146
   5531 H          21.4108    6.0090   23.6006 H     1383  UNL1383     0.1146
   5532 H          22.0335    7.4467   23.1595 H     1383  UNL1383     0.1146
   5533 N          21.9112    6.7506   26.4152 N.3   1384  UNL1384    -0.3437
   5534 H          21.5576    6.1609   25.6632 H     1384  UNL1384     0.1146
   5535 H          22.5160    6.1547   26.9787 H     1384  UNL1384     0.1146
   5536 H          22.5239    7.4337   25.9720 H     1384  UNL1384     0.1146
   5537 N          21.9295    6.7676   29.0653 N.3   1385  UNL1385    -0.3437
   5538 H          21.4956    6.1275   28.4017 H     1385  UNL1385     0.1146
   5539 H          22.5780    6.2055   29.6147 H     1385  UNL1385     0.1146
   5540 H          22.5056    7.3992   28.5107 H     1385  UNL1385     0.1146
   5541 N          19.9450    6.8081   31.6827 N.3   1386  UNL1386    -0.3437
   5542 H          20.5451    6.2757   32.3110 H     1386  UNL1386     0.1146
   5543 H          20.5706    7.2960   31.0431 H     1386  UNL1386     0.1146
   5544 H          19.4479    6.1201   31.1189 H     1386  UNL1386     0.1146
   5545 N          21.9608    4.4350   34.3333 N.3   1387  UNL1387    -0.3437
   5546 H          21.4452    4.8932   33.5833 H     1387  UNL1387     0.1146
   5547 H          22.7626    3.9883   33.8908 H     1387  UNL1387     0.1146
   5548 H          22.3400    5.1834   34.9116 H     1387  UNL1387     0.1146
   5549 N          22.0875    9.1891    0.6328 N.3   1388  UNL1388    -0.3437
   5550 H          21.2111    9.6099    0.3274 H     1388  UNL1388     0.1146
   5551 H          22.6575    9.0874   -0.2057 H     1388  UNL1388     0.1146
   5552 H          22.5525    9.8926    1.2048 H     1388  UNL1388     0.1146
   5553 N          21.9126    9.5329    3.3139 N.3   1389  UNL1389    -0.3437
   5554 H          22.5409    8.8538    3.7409 H     1389  UNL1389     0.1146
   5555 H          22.5024   10.3018    2.9986 H     1389  UNL1389     0.1146
   5556 H          21.5527    9.0905    2.4694 H     1389  UNL1389     0.1146
   5557 N          22.0427    9.6460    5.9709 N.3   1390  UNL1390    -0.3437
   5558 H          22.6778    8.9497    6.3585 H     1390  UNL1390     0.1146
   5559 H          22.5292   10.0585    5.1762 H     1390  UNL1390     0.1146
   5560 H          21.2589    9.1248    5.5805 H     1390  UNL1390     0.1146
   5561 N          21.9564    9.2937    8.2241 N.3   1391  UNL1391    -0.3437
   5562 H          21.4262    9.9446    8.8017 H     1391  UNL1391     0.1146
   5563 H          22.6663    9.8516    7.7516 H     1391  UNL1391     0.1146
   5564 H          22.4596    8.6891    8.8719 H     1391  UNL1391     0.1146
   5565 N          21.9086    9.3142   10.9029 N.3   1392  UNL1392    -0.3437
   5566 H          21.5710   10.0189   11.5570 H     1392  UNL1392     0.1146
   5567 H          22.5745    9.7903   10.2961 H     1392  UNL1392     0.1146
   5568 H          22.4545    8.6556   11.4566 H     1392  UNL1392     0.1146
   5569 N          21.9490    9.2416   13.5740 N.3   1393  UNL1393    -0.3437
   5570 H          21.4365   10.0015   14.0191 H     1393  UNL1393     0.1146
   5571 H          22.5638    9.6804   12.8899 H     1393  UNL1393     0.1146
   5572 H          22.5592    8.8554   14.2929 H     1393  UNL1393     0.1146
   5573 N          21.9393    9.3012   18.1573 N.3   1394  UNL1394    -0.3437
   5574 H          21.4656    9.8186   18.8964 H     1394  UNL1394     0.1146
   5575 H          22.5101    9.9826   17.6589 H     1394  UNL1394     0.1146
   5576 H          22.5935    8.6766   18.6266 H     1394  UNL1394     0.1146
   5577 N          22.3265    9.6348   20.8683 N.3   1395  UNL1395    -0.3437
   5578 H          22.6719    9.1144   21.6734 H     1395  UNL1395     0.1146
   5579 H          22.0397    8.9361   20.1842 H     1395  UNL1395     0.1146
   5580 H          21.4705   10.0937   21.1767 H     1395  UNL1395     0.1146
   5581 N          21.9478    9.6255   23.7666 N.3   1396  UNL1396    -0.3437
   5582 H          22.7413   10.1125   23.3525 H     1396  UNL1396     0.1146
   5583 H          21.4763    9.1519   22.9973 H     1396  UNL1396     0.1146
   5584 H          22.3432    8.8890   24.3494 H     1396  UNL1396     0.1146
   5585 N          21.9697    9.6460   26.4060 N.3   1397  UNL1397    -0.3437
   5586 H          21.3842    8.9711   25.9160 H     1397  UNL1397     0.1146
   5587 H          22.5825    9.1000   27.0100 H     1397  UNL1397     0.1146
   5588 H          22.5722   10.0620   25.6972 H     1397  UNL1397     0.1146
   5589 N          21.9598    9.6264   29.0605 N.3   1398  UNL1398    -0.3437
   5590 H          21.4083    8.9995   28.4764 H     1398  UNL1398     0.1146
   5591 H          22.5576    9.0279   29.6286 H     1398  UNL1398     0.1146
   5592 H          22.5828   10.1252   28.4268 H     1398  UNL1398     0.1146
   5593 N          21.9233    9.5929   31.6934 N.3   1399  UNL1399    -0.3437
   5594 H          22.5735    9.0814   32.2883 H     1399  UNL1399     0.1146
   5595 H          22.4956   10.2019   31.1103 H     1399  UNL1399     0.1146
   5596 H          21.5162    8.9027   31.0638 H     1399  UNL1399     0.1146
   5597 N          22.1222    7.1550   34.1213 N.3   1400  UNL1400    -0.3437
   5598 H          21.3600    7.6608   33.6723 H     1400  UNL1400     0.1146
   5599 H          22.9810    7.6055   33.8084 H     1400  UNL1400     0.1146
   5600 H          22.0455    7.3577   35.1170 H     1400  UNL1400     0.1146
   5601 N          21.9479   12.2213   -0.3820 N.3   1401  UNL1401    -0.3437
   5602 H          21.4566   12.5776    0.4365 H     1401  UNL1401     0.1146
   5603 H          22.6896   12.8919   -0.5784 H     1401  UNL1401     0.1146
   5604 H          22.4144   11.3672   -0.0799 H     1401  UNL1401     0.1146
   5605 N          22.1846   12.5108    2.3369 N.3   1402  UNL1402    -0.3437
   5606 H          21.2232   12.1923    2.2243 H     1402  UNL1402     0.1146
   5607 H          22.3264   12.6272    3.3393 H     1402  UNL1402     0.1146
   5608 H          22.7744   11.7277    2.0589 H     1402  UNL1402     0.1146
   5609 N          21.9452   12.3572    5.3444 N.3   1403  UNL1403    -0.3437
   5610 H          21.4488   11.9447    4.5559 H     1403  UNL1403     0.1146
   5611 H          22.6015   11.6469    5.6658 H     1403  UNL1403     0.1146
   5612 H          22.5130   13.1092    4.9566 H     1403  UNL1403     0.1146
   5613 N          21.9640   12.1117    7.5781 N.3   1404  UNL1404    -0.3437
   5614 H          21.3986   12.6659    8.2197 H     1404  UNL1404     0.1146
   5615 H          22.5999   12.7673    7.1262 H     1404  UNL1404     0.1146
   5616 H          22.5462   11.5131    8.1621 H     1404  UNL1404     0.1146
   5617 N          21.8760   12.4100   10.4680 N.3   1405  UNL1405    -0.3437
   5618 H          21.7269   11.4158   10.3020 H     1405  UNL1405     0.1146
   5619 H          22.5442   12.4697   11.2349 H     1405  UNL1405     0.1146
   5620 H          22.3615   12.7625    9.6444 H     1405  UNL1405     0.1146
   5621 N          21.9599   12.3521   13.2807 N.3   1406  UNL1406    -0.3437
   5622 H          21.4082   12.0210   12.4905 H     1406  UNL1406     0.1146
   5623 H          22.5882   11.5877   13.5244 H     1406  UNL1406     0.1146
   5624 H          22.5522   13.0973   12.9171 H     1406  UNL1406     0.1146
   5625 N          21.9164   12.1695   15.5098 N.3   1407  UNL1407    -0.3437
   5626 H          21.5478   12.7395   16.2698 H     1407  UNL1407     0.1146
   5627 H          22.6182   12.7427   15.0436 H     1407  UNL1407     0.1146
   5628 H          22.4262   11.4064   15.9528 H     1407  UNL1407     0.1146
   5629 N          21.9075   12.1648   18.1640 N.3   1408  UNL1408    -0.3437
   5630 H          21.5846   12.8070   18.8862 H     1408  UNL1408     0.1146
   5631 H          22.6186   12.6695   17.6368 H     1408  UNL1408     0.1146
   5632 H          22.3979   11.4168   18.6522 H     1408  UNL1408     0.1146
   5633 N          21.9452   12.0861   20.8259 N.3   1409  UNL1409    -0.3437
   5634 H          21.4548   12.8487   21.2910 H     1409  UNL1409     0.1146
   5635 H          22.6458   12.5248   20.2300 H     1409  UNL1409     0.1146
   5636 H          22.4629   11.5985   21.5557 H     1409  UNL1409     0.1146
   5637 N          21.9363   12.3917   23.8029 N.3   1410  UNL1410    -0.3437
   5638 H          21.4778   11.9707   22.9961 H     1410  UNL1410     0.1146
   5639 H          22.4767   11.6462   24.2396 H     1410  UNL1410     0.1146
   5640 H          22.6178   13.0495   23.4272 H     1410  UNL1410     0.1146
   5641 N          21.9544   12.1076   26.0758 N.3   1411  UNL1411    -0.3437
   5642 H          21.4267   12.5965   26.7975 H     1411  UNL1411     0.1146
   5643 H          22.4920   12.8227   25.5879 H     1411  UNL1411     0.1146
   5644 H          22.6356   11.5312   26.5679 H     1411  UNL1411     0.1146
   5645 N          21.9225   12.0839   28.7848 N.3   1412  UNL1412    -0.3437
   5646 H          21.5220   12.9307   29.1858 H     1412  UNL1412     0.1146
   5647 H          22.6010   12.3952   28.0912 H     1412  UNL1412     0.1146
   5648 H          22.4631   11.6483   29.5306 H     1412  UNL1412     0.1146
   5649 N          21.9623   12.4437   31.7065 N.3   1413  UNL1413    -0.3437
   5650 H          21.4021   11.8195   31.1277 H     1413  UNL1413     0.1146
   5651 H          22.5747   11.8428   32.2563 H     1413  UNL1413     0.1146
   5652 H          22.5695   12.9520   31.0652 H     1413  UNL1413     0.1146
   5653 N          21.9411   10.2977   34.4070 N.3   1414  UNL1414    -0.3437
   5654 H          21.5402   10.6041   33.5217 H     1414  UNL1414     0.1146
   5655 H          22.2236    9.3287   34.2670 H     1414  UNL1414     0.1146
   5656 H          22.8037   10.8277   34.5232 H     1414  UNL1414     0.1146
   5657 N          21.9621   14.9289   -0.3407 N.3   1415  UNL1415    -0.3437
   5658 H          21.4069   15.5426    0.2540 H     1415  UNL1415     0.1146
   5659 H          22.6402   15.5290   -0.8081 H     1415  UNL1415     0.1146
   5660 H          22.4995   14.3367    0.2909 H     1415  UNL1415     0.1146
   5661 N          21.9515   14.9036    2.3354 N.3   1416  UNL1416    -0.3437
   5662 H          22.5820   14.4018    2.9591 H     1416  UNL1416     0.1146
   5663 H          21.4303   15.5515    2.9245 H     1416  UNL1416     0.1146
   5664 H          22.5448   15.4802    1.7405 H     1416  UNL1416     0.1146
   5665 N          21.9448   15.2489    5.2951 N.3   1417  UNL1417    -0.3437
   5666 H          21.4486   14.6352    4.6504 H     1417  UNL1417     0.1146
   5667 H          22.5423   14.6432    5.8558 H     1417  UNL1417     0.1146
   5668 H          22.5729   15.8100    4.7215 H     1417  UNL1417     0.1146
   5669 N          21.9836   15.2508    7.9691 N.3   1418  UNL1418    -0.3437
   5670 H          21.3630   14.8467    7.2691 H     1418  UNL1418     0.1146
   5671 H          22.4735   14.4662    8.3966 H     1418  UNL1418     0.1146
   5672 H          22.6885   15.7735    7.4513 H     1418  UNL1418     0.1146
   5673 N          21.9568   14.9621   10.2039 N.3   1419  UNL1419    -0.3437
   5674 H          21.4206   15.3075   10.9986 H     1419  UNL1419     0.1146
   5675 H          22.4920   15.7577    9.8590 H     1419  UNL1419     0.1146
   5676 H          22.6392   14.3098   10.5878 H     1419  UNL1419     0.1146
   5677 N          21.9385   15.2541   13.2047 N.3   1420  UNL1420    -0.3437
   5678 H          21.4685   14.5350   12.6566 H     1420  UNL1420     0.1146
   5679 H          22.5974   14.7625   13.8069 H     1420  UNL1420     0.1146
   5680 H          22.5041   15.7856   12.5444 H     1420  UNL1420     0.1146
   5681 N          21.9047   15.1643   15.8714 N.3   1421  UNL1421    -0.3437
   5682 H          21.5889   14.6473   15.0520 H     1421  UNL1421     0.1146
   5683 H          22.5841   14.5646   16.3373 H     1421  UNL1421     0.1146
   5684 H          22.4310   15.9609   15.5152 H     1421  UNL1421     0.1146
   5685 N          21.9481   14.9487   18.1426 N.3   1422  UNL1422    -0.3437
   5686 H          21.4392   15.4726   18.8531 H     1422  UNL1422     0.1146
   5687 H          22.5735   15.6172   17.6948 H     1422  UNL1422     0.1146
   5688 H          22.5478   14.2987   18.6487 H     1422  UNL1422     0.1146
   5689 N          21.9705   14.9062   21.1521 N.3   1423  UNL1423    -0.3437
   5690 H          21.3852   15.4401   20.5113 H     1423  UNL1423     0.1146
   5691 H          22.6349   14.3989   20.5692 H     1423  UNL1423     0.1146
   5692 H          22.5180   15.5920   21.6700 H     1423  UNL1423     0.1146
   5693 N          21.8785   15.1175   23.4601 N.3   1424  UNL1424    -0.3437
   5694 H          21.7426   14.5616   24.3033 H     1424  UNL1424     0.1146
   5695 H          22.2712   16.0055   23.7694 H     1424  UNL1424     0.1146
   5696 H          22.6163   14.6525   22.9330 H     1424  UNL1424     0.1146
   5697 N          21.9937   15.2940   26.4172 N.3   1425  UNL1425    -0.3437
   5698 H          21.3331   14.6716   25.9541 H     1425  UNL1425     0.1146
   5699 H          22.5980   14.6951   26.9781 H     1425  UNL1425     0.1146
   5700 H          22.5838   15.6763   25.6797 H     1425  UNL1425     0.1146
   5701 N          21.9391   15.2347   29.0696 N.3   1426  UNL1426    -0.3437
   5702 H          21.4653   14.6681   28.3676 H     1426  UNL1426     0.1146
   5703 H          22.5275   14.5925   29.5985 H     1426  UNL1426     0.1146
   5704 H          22.5768   15.8419   28.5567 H     1426  UNL1426     0.1146
   5705 N          21.9244   15.2556   31.6690 N.3   1427  UNL1427    -0.3437
   5706 H          22.4850   14.7308   32.3388 H     1427  UNL1427     0.1146
   5707 H          22.5858   15.7868   31.1043 H     1427  UNL1427     0.1146
   5708 H          21.5134   14.5639   31.0437 H     1427  UNL1427     0.1146
   5709 N          22.0105   13.3525   34.1369 N.3   1428  UNL1428    -0.3437
   5710 H          22.1747   13.1469   35.1213 H     1428  UNL1428     0.1146
   5711 H          22.9094   13.2346   33.6716 H     1428  UNL1428     0.1146
   5712 H          21.4140   12.6031   33.7892 H     1428  UNL1428     0.1146
   5713 N          22.3558   17.9480    0.6720 N.3   1429  UNL1429    -0.3437
   5714 H          22.6437   17.8118   -0.2959 H     1429  UNL1429     0.1146
   5715 H          21.7026   18.7301    0.6634 H     1429  UNL1429     0.1146
   5716 H          21.8066   17.1263    0.9200 H     1429  UNL1429     0.1146
   5717 N          21.9570   17.7562    2.9395 N.3   1430  UNL1430    -0.3437
   5718 H          21.4154   18.2722    3.6314 H     1430  UNL1430     0.1146
   5719 H          22.5574   18.4422    2.4841 H     1430  UNL1430     0.1146
   5720 H          22.5787   17.1457    3.4678 H     1430  UNL1430     0.1146
   5721 N          21.9382   17.7426    5.6115 N.3   1431  UNL1431    -0.3437
   5722 H          21.4713   18.3142    6.3141 H     1431  UNL1431     0.1146
   5723 H          22.4851   18.3875    5.0429 H     1431  UNL1431     0.1146
   5724 H          22.6140   17.1720    6.1175 H     1431  UNL1431     0.1146
   5725 N          21.9452   17.7829    8.2134 N.3   1432  UNL1432    -0.3437
   5726 H          21.4486   18.2960    8.9403 H     1432  UNL1432     0.1146
   5727 H          22.5984   18.4456    7.7980 H     1432  UNL1432     0.1146
   5728 H          22.5164   17.0918    8.6977 H     1432  UNL1432     0.1146
   5729 N          21.9287   17.7562   10.8914 N.3   1433  UNL1433    -0.3437
   5730 H          21.5041   18.2730   11.6602 H     1433  UNL1433     0.1146
   5731 H          22.4497   18.4416   10.3462 H     1433  UNL1433     0.1146
   5732 H          22.6260   17.1455   11.3148 H     1433  UNL1433     0.1146
   5733 N          21.9488   17.6878   13.7877 N.3   1434  UNL1434    -0.3437
   5734 H          21.4723   18.5850   13.7082 H     1434  UNL1434     0.1146
   5735 H          22.3478   17.4992   12.8692 H     1434  UNL1434     0.1146
   5736 H          22.7398   17.8442   14.4108 H     1434  UNL1434     0.1146
   5737 N          21.9203   17.7827   18.1620 N.3   1435  UNL1435    -0.3437
   5738 H          21.5315   18.4274   18.8487 H     1435  UNL1435     0.1146
   5739 H          22.6107   18.3160   17.6354 H     1435  UNL1435     0.1146
   5740 H          22.4461   17.0901   18.6932 H     1435  UNL1435     0.1146
   5741 N          22.3245   18.0533   20.8139 N.3   1436  UNL1436    -0.3437
   5742 H          21.6019   18.6546   21.2071 H     1436  UNL1436     0.1146
   5743 H          22.7479   17.5692   21.6044 H     1436  UNL1436     0.1146
   5744 H          21.8343   17.3392   20.2771 H     1436  UNL1436     0.1146
   5745 N          21.9815   18.0951   23.7886 N.3   1437  UNL1437    -0.3437
   5746 H          21.3685   17.4002   23.3646 H     1437  UNL1437     0.1146
   5747 H          22.6925   17.5703   24.2960 H     1437  UNL1437     0.1146
   5748 H          22.4661   18.5506   23.0166 H     1437  UNL1437     0.1146
   5749 N          21.9501   18.0958   26.3961 N.3   1438  UNL1438    -0.3437
   5750 H          21.4366   17.4361   25.8135 H     1438  UNL1438     0.1146
   5751 H          22.5018   17.5312   27.0405 H     1438  UNL1438     0.1146
   5752 H          22.6200   18.5531   25.7791 H     1438  UNL1438     0.1146
   5753 N          21.9507   18.0907   29.0445 N.3   1439  UNL1439    -0.3437
   5754 H          21.4355   17.4599   28.4321 H     1439  UNL1439     0.1146
   5755 H          22.4970   17.4953   29.6655 H     1439  UNL1439     0.1146
   5756 H          22.6254   18.5704   28.4503 H     1439  UNL1439     0.1146
   5757 N          21.9588   18.1070   31.6725 N.3   1440  UNL1440    -0.3437
   5758 H          21.4145   17.4421   31.1248 H     1440  UNL1440     0.1146
   5759 H          22.5021   17.5505   32.3309 H     1440  UNL1440     0.1146
   5760 H          22.6331   18.5166   31.0276 H     1440  UNL1440     0.1146
   5761 N          22.3794   16.0536   35.2171 N.3   1441  UNL1441    -0.3437
   5762 H          22.2549   15.7231   34.2612 H     1441  UNL1441     0.1146
   5763 H          21.5544   16.6124   35.4306 H     1441  UNL1441     0.1146
   5764 H          22.3199   15.2271   35.8101 H     1441  UNL1441     0.1146
   5765 N          19.9735   20.5550   -0.3387 N.3   1442  UNL1442    -0.3437
   5766 H          19.3763   21.1352    0.2487 H     1442  UNL1442     0.1146
   5767 H          20.6080   21.1955   -0.8136 H     1442  UNL1442     0.1146
   5768 H          20.5508   20.0096    0.2997 H     1442  UNL1442     0.1146
   5769 N          21.9676   20.5732    2.2919 N.3   1443  UNL1443    -0.3437
   5770 H          21.3895   21.0999    2.9451 H     1443  UNL1443     0.1146
   5771 H          22.5930   21.2518    1.8598 H     1443  UNL1443     0.1146
   5772 H          22.5585   19.9704    2.8627 H     1443  UNL1443     0.1146
   5773 N          21.8854   20.8752    5.0532 N.3   1444  UNL1444    -0.3437
   5774 H          21.6960   19.8876    5.2179 H     1444  UNL1444     0.1146
   5775 H          22.3126   21.2259    5.9094 H     1444  UNL1444     0.1146
   5776 H          22.6146   20.9067    4.3422 H     1444  UNL1444     0.1146
   5777 N          21.9351   20.5362    7.8952 N.3   1445  UNL1445    -0.3437
   5778 H          21.4767   21.2880    7.3824 H     1445  UNL1445     0.1146
   5779 H          22.5579   20.0810    7.2293 H     1445  UNL1445     0.1146
   5780 H          22.5389   20.9901    8.5792 H     1445  UNL1445     0.1146
   5781 N          21.9210   20.5631   10.5503 N.3   1446  UNL1446    -0.3437
   5782 H          21.5271   21.3445   10.0283 H     1446  UNL1446     0.1146
   5783 H          22.4602   20.0194    9.8779 H     1446  UNL1446     0.1146
   5784 H          22.6003   20.9684   11.1928 H     1446  UNL1446     0.1146
   5785 N          21.9156   20.6141   13.2280 N.3   1447  UNL1447    -0.3437
   5786 H          21.5415   21.1016   12.4152 H     1447  UNL1447     0.1146
   5787 H          22.5373   19.8943   12.8623 H     1447  UNL1447     0.1146
   5788 H          22.5142   21.2853   13.7071 H     1447  UNL1447     0.1146
   5789 N          21.9394   20.6623   15.4741 N.3   1448  UNL1448    -0.3437
   5790 H          21.4679   20.9991   16.3124 H     1448  UNL1448     0.1146
   5791 H          22.6164   21.3818   15.2244 H     1448  UNL1448     0.1146
   5792 H          22.4849   19.8522   15.7650 H     1448  UNL1448     0.1146
   5793 N          21.9330   20.5809   18.1638 N.3   1449  UNL1449    -0.3437
   5794 H          21.4888   21.2536   18.7872 H     1449  UNL1449     0.1146
   5795 H          22.6195   21.1076   17.6255 H     1449  UNL1449     0.1146
   5796 H          22.4674   19.9532   18.7628 H     1449  UNL1449     0.1146
   5797 N          21.9508   20.5527   20.8114 N.3   1450  UNL1450    -0.3437
   5798 H          21.4318   21.1910   21.4126 H     1450  UNL1450     0.1146
   5799 H          22.5687   21.1362   20.2492 H     1450  UNL1450     0.1146
   5800 H          22.5573   20.0154   21.4293 H     1450  UNL1450     0.1146
   5801 N          21.9369   20.5592   23.4613 N.3   1451  UNL1451    -0.3437
   5802 H          21.4715   21.2165   24.0856 H     1451  UNL1451     0.1146
   5803 H          22.5478   21.1194   22.8686 H     1451  UNL1451     0.1146
   5804 H          22.5525   20.0002   24.0503 H     1451  UNL1451     0.1146
   5805 N          21.9431   20.5438   26.1120 N.3   1452  UNL1452    -0.3437
   5806 H          21.4533   21.2259   26.6893 H     1452  UNL1452     0.1146
   5807 H          22.5419   21.0825   25.4878 H     1452  UNL1452     0.1146
   5808 H          22.5703   20.0432   26.7400 H     1452  UNL1452     0.1146
   5809 N          21.9346   20.5520   28.7540 N.3   1453  UNL1453    -0.3437
   5810 H          21.4784   21.2538   29.3352 H     1453  UNL1453     0.1146
   5811 H          22.5515   21.0652   28.1260 H     1453  UNL1453     0.1146
   5812 H          22.5442   20.0243   29.3772 H     1453  UNL1453     0.1146
   5813 N          21.9283   20.5510   31.4049 N.3   1454  UNL1454    -0.3437
   5814 H          21.4984   21.2628   31.9938 H     1454  UNL1454     0.1146
   5815 H          22.5222   21.0526   30.7461 H     1454  UNL1454     0.1146
   5816 H          22.5597   20.0290   32.0109 H     1454  UNL1454     0.1146
   5817 N          21.9376   18.9484   34.1482 N.3   1455  UNL1455    -0.3437
   5818 H          21.5480   18.0578   33.8426 H     1455  UNL1455     0.1146
   5819 H          22.2281   18.8109   35.1152 H     1455  UNL1455     0.1146
   5820 H          22.7950   19.0782   33.6131 H     1455  UNL1455     0.1146
   5821 N          21.9320   23.3875   -0.3088 N.3   1456  UNL1456    -0.3437
   5822 H          21.4875   24.0681    0.3057 H     1456  UNL1456     0.1146
   5823 H          22.5782   23.9163   -0.8928 H     1456  UNL1456     0.1146
   5824 H          22.5109   22.8025    0.2920 H     1456  UNL1456     0.1146
   5825 N          21.9744   23.3799    2.2969 N.3   1457  UNL1457    -0.3437
   5826 H          21.3736   23.9099    2.9266 H     1457  UNL1457     0.1146
   5827 H          22.5779   24.0638    1.8425 H     1457  UNL1457     0.1146
   5828 H          22.5828   22.8209    2.8934 H     1457  UNL1457     0.1146
   5829 N          21.9429   23.3755    4.9721 N.3   1458  UNL1458    -0.3437
   5830 H          21.4539   24.0139    5.5979 H     1458  UNL1458     0.1146
   5831 H          22.5443   23.9576    4.3908 H     1458  UNL1458     0.1146
   5832 H          22.5676   22.8275    5.5619 H     1458  UNL1458     0.1146
   5833 N          21.9367   23.4178    7.5837 N.3   1459  UNL1459    -0.3437
   5834 H          21.4724   23.9531    8.3160 H     1459  UNL1459     0.1146
   5835 H          22.5745   24.0658    7.1235 H     1459  UNL1459     0.1146
   5836 H          22.5250   22.7377    8.0629 H     1459  UNL1459     0.1146
   5837 N          21.9226   23.4049   10.2503 N.3   1460  UNL1460    -0.3437
   5838 H          21.5189   24.0636   10.9147 H     1460  UNL1460     0.1146
   5839 H          22.5763   23.9429    9.6833 H     1460  UNL1460     0.1146
   5840 H          22.4908   22.7630   10.8011 H     1460  UNL1460     0.1146
   5841 N          21.9450   23.3594   12.9109 N.3   1461  UNL1461    -0.3437
   5842 H          21.4479   24.0675   13.4492 H     1461  UNL1461     0.1146
   5843 H          22.5624   23.8682   12.2799 H     1461  UNL1461     0.1146
   5844 H          22.5533   22.8793   13.5726 H     1461  UNL1461     0.1146
   5845 N          21.9380   23.3858   15.5306 N.3   1462  UNL1462    -0.3437
   5846 H          21.4682   24.0259   16.1693 H     1462  UNL1462     0.1146
   5847 H          22.5623   23.9602   14.9661 H     1462  UNL1462     0.1146
   5848 H          22.5401   22.8025   16.1099 H     1462  UNL1462     0.1146
   5849 N          21.9438   23.3919   18.1596 N.3   1463  UNL1463    -0.3437
   5850 H          21.4522   24.0116   18.8019 H     1463  UNL1463     0.1146
   5851 H          22.5889   23.9830   17.6374 H     1463  UNL1463     0.1146
   5852 H          22.5237   22.7880   18.7404 H     1463  UNL1463     0.1146
   5853 N          21.9440   23.3926   20.7995 N.3   1464  UNL1464    -0.3437
   5854 H          21.4514   24.0096   21.4437 H     1464  UNL1464     0.1146
   5855 H          22.5900   23.9860   20.2808 H     1464  UNL1464     0.1146
   5856 H          22.5231   22.7863   21.3786 H     1464  UNL1464     0.1146
   5857 N          21.9264   23.3987   23.4550 N.3   1465  UNL1465    -0.3437
   5858 H          21.5044   24.0303   24.1343 H     1465  UNL1465     0.1146
   5859 H          22.5494   23.9719   22.8877 H     1465  UNL1465     0.1146
   5860 H          22.5284   22.7735   23.9889 H     1465  UNL1465     0.1146
   5861 N          21.9259   23.4012   26.0943 N.3   1466  UNL1466    -0.3437
   5862 H          21.5068   24.0444   26.7644 H     1466  UNL1466     0.1146
   5863 H          22.5655   23.9598   25.5311 H     1466  UNL1466     0.1146
   5864 H          22.5105   22.7691   26.6394 H     1466  UNL1466     0.1146
   5865 N          21.9322   23.3930   28.7347 N.3   1467  UNL1467    -0.3437
   5866 H          21.4868   24.0503   29.3735 H     1467  UNL1467     0.1146
   5867 H          22.5777   23.9436   28.1702 H     1467  UNL1467     0.1146
   5868 H          22.5120   22.7875   29.3140 H     1467  UNL1467     0.1146
   5869 N          21.8868   23.4532   31.3926 N.3   1468  UNL1468    -0.3437
   5870 H          21.6605   23.9946   32.2257 H     1468  UNL1468     0.1146
   5871 H          22.4921   24.0470   30.8275 H     1468  UNL1468     0.1146
   5872 H          22.4692   22.6796   31.7100 H     1468  UNL1468     0.1146
   5873 N          22.2029   21.4021   34.9315 N.3   1469  UNL1469    -0.3437
   5874 H          21.4327   22.0548   34.7935 H     1469  UNL1469     0.1146
   5875 H          22.9683   21.9496   35.3226 H     1469  UNL1469     0.1146
   5876 H          21.9047   20.7680   35.6714 H     1469  UNL1469     0.1146
   5877 N          21.9280   26.2344   -0.3273 N.3   1470  UNL1470    -0.3437
   5878 H          21.5079   26.8963    0.3237 H     1470  UNL1470     0.1146
   5879 H          22.6323   26.7582   -0.8450 H     1470  UNL1470     0.1146
   5880 H          22.4404   25.5646    0.2448 H     1470  UNL1470     0.1146
   5881 N          21.9132   26.2389    2.3282 N.3   1471  UNL1471    -0.3437
   5882 H          21.5593   26.9399    2.9776 H     1471  UNL1471     0.1146
   5883 H          22.6132   26.7119    1.7584 H     1471  UNL1471     0.1146
   5884 H          22.4229   25.5628    2.8952 H     1471  UNL1471     0.1146
   5885 N          21.9207   26.2277    4.9683 N.3   1472  UNL1472    -0.3437
   5886 H          21.5240   26.8611    5.6610 H     1472  UNL1472     0.1146
   5887 H          22.5579   26.7900    4.4059 H     1472  UNL1472     0.1146
   5888 H          22.5060   25.5748    5.4874 H     1472  UNL1472     0.1146
   5889 N          21.9387   26.5301    7.9266 N.3   1473  UNL1473    -0.3437
   5890 H          21.4661   25.8614    7.3200 H     1473  UNL1473     0.1146
   5891 H          22.5594   25.9814    8.5198 H     1473  UNL1473     0.1146
   5892 H          22.5444   27.0806    7.3196 H     1473  UNL1473     0.1146
   5893 N          21.9373   26.4660   10.6143 N.3   1474  UNL1474    -0.3437
   5894 H          21.4707   26.0260    9.8224 H     1474  UNL1474     0.1146
   5895 H          22.5726   25.7642   10.9913 H     1474  UNL1474     0.1146
   5896 H          22.5280   27.1974   10.2213 H     1474  UNL1474     0.1146
   5897 N          21.9230   26.2488   12.8727 N.3   1475  UNL1475    -0.3437
   5898 H          21.5180   26.8178   13.6147 H     1475  UNL1475     0.1146
   5899 H          22.5855   26.8514   12.3864 H     1475  UNL1475     0.1146
   5900 H          22.4820   25.5357   13.3389 H     1475  UNL1475     0.1146
   5901 N          21.9111   26.4408   15.8803 N.3   1476  UNL1476    -0.3437
   5902 H          21.5607   25.9909   15.0358 H     1476  UNL1476     0.1146
   5903 H          22.5726   25.7852   16.2940 H     1476  UNL1476     0.1146
   5904 H          22.4642   27.2367   15.5658 H     1476  UNL1476     0.1146
   5905 N          21.9532   26.2640   18.1175 N.3   1477  UNL1477    -0.3437
   5906 H          21.4310   26.7284   18.8591 H     1477  UNL1477     0.1146
   5907 H          22.6420   26.9410   17.7926 H     1477  UNL1477     0.1146
   5908 H          22.4824   25.5201   18.5700 H     1477  UNL1477     0.1146
   5909 N          21.9605   26.2059   20.7891 N.3   1478  UNL1478    -0.3437
   5910 H          21.4065   26.7567   21.4434 H     1478  UNL1478     0.1146
   5911 H          22.5699   26.8676   20.3105 H     1478  UNL1478     0.1146
   5912 H          22.5717   25.6233   21.3596 H     1478  UNL1478     0.1146
   5913 N          21.9205   26.2210   23.4603 N.3   1479  UNL1479    -0.3437
   5914 H          21.5254   26.8933   24.1162 H     1479  UNL1479     0.1146
   5915 H          22.5653   26.7476   22.8727 H     1479  UNL1479     0.1146
   5916 H          22.4974   25.5917   24.0166 H     1479  UNL1479     0.1146
   5917 N          21.9290   26.2189   26.0922 N.3   1480  UNL1480    -0.3437
   5918 H          21.4972   26.8711   26.7452 H     1480  UNL1480     0.1146
   5919 H          22.5802   26.7696   25.5345 H     1480  UNL1480     0.1146
   5920 H          22.5022   25.5939   26.6572 H     1480  UNL1480     0.1146
   5921 N          21.9322   26.2128   28.7347 N.3   1481  UNL1481    -0.3437
   5922 H          21.4868   26.8701   29.3735 H     1481  UNL1481     0.1146
   5923 H          22.5777   26.7633   28.1702 H     1481  UNL1481     0.1146
   5924 H          22.5120   25.6073   29.3140 H     1481  UNL1481     0.1146
   5925 N          21.9061   26.2378   31.3881 N.3   1482  UNL1482    -0.3437
   5926 H          21.5769   26.8463   32.1363 H     1482  UNL1482     0.1146
   5927 H          22.5064   26.8147   30.8005 H     1482  UNL1482     0.1146
   5928 H          22.5192   25.5548   31.8308 H     1482  UNL1482     0.1146
   5929 N          22.2238   24.6298   35.0956 N.3   1483  UNL1483    -0.3437
   5930 H          21.2988   24.6628   35.5218 H     1483  UNL1483     0.1146
   5931 H          22.8337   24.1880   35.7820 H     1483  UNL1483     0.1146
   5932 H          22.1523   23.9731   34.3197 H     1483  UNL1483     0.1146
   5933 N          21.9277   30.0542   -0.3270 N.3   1484  UNL1484    -0.3437
   5934 H          21.5092   30.7192    0.3219 H     1484  UNL1484     0.1146
   5935 H          22.6336   30.5746   -0.8460 H     1484  UNL1484     0.1146
   5936 H          22.4381   29.3848    0.2472 H     1484  UNL1484     0.1146
   5937 N          21.9143   30.0709    2.3182 N.3   1485  UNL1485    -0.3437
   5938 H          21.5572   30.7293    3.0091 H     1485  UNL1485     0.1146
   5939 H          22.6225   30.5766    1.7880 H     1485  UNL1485     0.1146
   5940 H          22.4147   29.3558    2.8441 H     1485  UNL1485     0.1146
   5941 N          21.9101   30.1480    4.9332 N.3   1486  UNL1486    -0.3437
   5942 H          21.5703   30.4659    5.8397 H     1486  UNL1486     0.1146
   5943 H          22.6047   30.8325    4.6377 H     1486  UNL1486     0.1146
   5944 H          22.4236   29.2862    5.1121 H     1486  UNL1486     0.1146
   5945 N          21.8377   29.2170    7.7220 N.3   1487  UNL1487    -0.3437
   5946 H          22.3109   30.0994    7.9112 H     1487  UNL1487     0.1146
   5947 H          22.3267   28.7999    6.9312 H     1487  UNL1487     0.1146
   5948 H          22.0333   28.6163    8.5216 H     1487  UNL1487     0.1146
   5949 N          21.9581   30.1021   10.1838 N.3   1488  UNL1488    -0.3437
   5950 H          21.4150   30.4587   10.9688 H     1488  UNL1488     0.1146
   5951 H          22.6200   30.8384    9.9427 H     1488  UNL1488     0.1146
   5952 H          22.5155   29.3336   10.5540 H     1488  UNL1488     0.1146
   5953 N          21.9496   30.1021   12.8312 N.3   1489  UNL1489    -0.3437
   5954 H          21.4364   30.4587   13.6361 H     1489  UNL1489     0.1146
   5955 H          22.6020   30.8384   12.5653 H     1489  UNL1489     0.1146
   5956 H          22.5206   29.3336   13.1801 H     1489  UNL1489     0.1146
   5957 N          21.9581   30.1021   15.4655 N.3   1490  UNL1490    -0.3437
   5958 H          21.4150   30.4587   16.2505 H     1490  UNL1490     0.1146
   5959 H          22.6200   30.8384   15.2244 H     1490  UNL1490     0.1146
   5960 H          22.5155   29.3336   15.8356 H     1490  UNL1490     0.1146
   5961 N          21.9277   30.0547   18.1584 N.3   1491  UNL1491    -0.3437
   5962 H          21.5092   30.7179   18.8091 H     1491  UNL1491     0.1146
   5963 H          22.6337   30.5765   17.6409 H     1491  UNL1491     0.1146
   5964 H          22.4380   29.3836   18.7308 H     1491  UNL1491     0.1146
   5965 N          21.9839   30.0623   20.7471 N.3   1492  UNL1492    -0.3437
   5966 H          21.3529   30.4347   21.4553 H     1492  UNL1492     0.1146
   5967 H          22.5844   30.8376   20.4702 H     1492  UNL1492     0.1146
   5968 H          22.5874   29.3981   21.2299 H     1492  UNL1492     0.1146
   5969 N          22.2403   30.1509   23.3453 N.3   1493  UNL1493    -0.3437
   5970 H          22.8799   30.6188   23.9859 H     1493  UNL1493     0.1146
   5971 H          22.0054   29.2611   23.7829 H     1493  UNL1493     0.1146
   5972 H          21.3831   30.7019   23.3518 H     1493  UNL1493     0.1146
   5973 N          21.9539   30.1159   26.0274 N.3   1494  UNL1494    -0.3437
   5974 H          21.4281   30.4594   26.8299 H     1494  UNL1494     0.1146
   5975 H          22.6366   30.8400   25.8081 H     1494  UNL1494     0.1146
   5976 H          22.4900   29.3173   26.3638 H     1494  UNL1494     0.1146
   5977 N          21.9493   30.1012   28.6767 N.3   1495  UNL1495    -0.3437
   5978 H          21.4376   30.4674   29.4782 H     1495  UNL1495     0.1146
   5979 H          22.6060   30.8316   28.4052 H     1495  UNL1495     0.1146
   5980 H          22.5157   29.3325   29.0324 H     1495  UNL1495     0.1146
   5981 N          21.8450   30.2076   31.4542 N.3   1496  UNL1496    -0.3437
   5982 H          21.9807   30.4252   32.4404 H     1496  UNL1496     0.1146
   5983 H          22.4660   30.8314   30.9409 H     1496  UNL1496     0.1146
   5984 H          22.2169   29.2684   31.3202 H     1496  UNL1496     0.1146
   5985 N          21.8470   29.2431   34.2526 N.3   1497  UNL1497    -0.3437
   5986 H          22.3277   28.6881   34.9592 H     1497  UNL1497     0.1146
   5987 H          22.4095   30.0832   34.1247 H     1497  UNL1497     0.1146
   5988 H          21.9244   28.7183   33.3826 H     1497  UNL1497     0.1146
   5989 N          24.4177    0.9185    0.6472 N.3   1498  UNL1498    -0.3437
   5990 H          24.9242    0.0925    0.3318 H     1498  UNL1498     0.1146
   5991 H          25.0894    1.4761    1.1729 H     1498  UNL1498     0.1146
   5992 H          24.2040    1.4546   -0.1926 H     1498  UNL1498     0.1146
   5993 N          24.4482    1.0603    2.9373 N.3   1499  UNL1499    -0.3437
   5994 H          25.0476    1.8446    3.1902 H     1499  UNL1499     0.1146
   5995 H          25.0696    0.3350    2.5821 H     1499  UNL1499     0.1146
   5996 H          24.0701    0.7019    3.8131 H     1499  UNL1499     0.1146
   5997 N          24.4160    1.0747    5.9145 N.3   1500  UNL1500    -0.3437
   5998 H          24.3032    0.1601    5.4796 H     1500  UNL1500     0.1146
   5999 H          25.2273    0.9968    6.5261 H     1500  UNL1500     0.1146
   6000 H          24.6888    1.7100    5.1659 H     1500  UNL1500     0.1146
   6001 N          24.5758    0.9062    8.2829 N.3   1501  UNL1501    -0.3437
   6002 H          23.7850    1.1096    8.8926 H     1501  UNL1501     0.1146
   6003 H          25.1582    1.7423    8.2899 H     1501  UNL1501     0.1146
   6004 H          25.1164    0.1835    8.7560 H     1501  UNL1501     0.1146
   6005 N          24.4619    0.8393   10.8881 N.3   1502  UNL1502    -0.3437
   6006 H          24.0239    1.4702   11.5578 H     1502  UNL1502     0.1146
   6007 H          25.0931    1.4142   10.3319 H     1502  UNL1502     0.1146
   6008 H          25.0564    0.2180   11.4349 H     1502  UNL1502     0.1146
   6009 N          24.4135    0.8696   13.5766 N.3   1503  UNL1503    -0.3437
   6010 H          24.2200    1.6453   14.2084 H     1503  UNL1503     0.1146
   6011 H          25.0533    1.2340   12.8722 H     1503  UNL1503     0.1146
   6012 H          24.9486    0.1927   14.1187 H     1503  UNL1503     0.1146
   6013 N          24.4597    0.8195   18.4769 N.3   1504  UNL1504    -0.3437
   6014 H          24.3205    0.8242   17.4675 H     1504  UNL1504     0.1146
   6015 H          25.4164    0.5022   18.6270 H     1504  UNL1504     0.1146
   6016 H          24.4388    1.7958   18.7679 H     1504  UNL1504     0.1146
   6017 N          24.7799    0.8356   20.7514 N.3   1505  UNL1505    -0.3437
   6018 H          24.0689    0.2986   21.2457 H     1505  UNL1505     0.1146
   6019 H          24.3235    1.6955   20.4502 H     1505  UNL1505     0.1146
   6020 H          25.4630    1.1120   21.4552 H     1505  UNL1505     0.1146
   6021 N          24.8774    0.8780   23.4490 N.3   1506  UNL1506    -0.3437
   6022 H          24.2724    0.1483   23.8230 H     1506  UNL1506     0.1146
   6023 H          24.2671    1.5151   22.9392 H     1506  UNL1506     0.1146
   6024 H          25.2185    1.4003   24.2547 H     1506  UNL1506     0.1146
   6025 N          24.4244    1.0637   26.4193 N.3   1507  UNL1507    -0.3437
   6026 H          24.1793    0.4540   25.6406 H     1507  UNL1507     0.1146
   6027 H          25.1268    0.5606   26.9597 H     1507  UNL1507     0.1146
   6028 H          24.9050    1.8633   26.0095 H     1507  UNL1507     0.1146
   6029 N          24.4500    1.0997   29.0733 N.3   1508  UNL1508    -0.3437
   6030 H          24.0657    0.5209   28.3278 H     1508  UNL1508     0.1146
   6031 H          25.1072    0.5072   29.5786 H     1508  UNL1508     0.1146
   6032 H          25.0125    1.8138   28.6128 H     1508  UNL1508     0.1146
   6033 N          22.4200    1.1071   31.6635 N.3   1509  UNL1509    -0.3437
   6034 H          22.1865    0.3657   31.0045 H     1509  UNL1509     0.1146
   6035 H          23.0502    0.6880   32.3459 H     1509  UNL1509     0.1146
   6036 H          22.9788    1.7808   31.1418 H     1509  UNL1509     0.1146
   6037 N          24.4624    0.7740   35.2435 N.3   1510  UNL1510    -0.3437
   6038 H          24.1665    1.6957   35.5617 H     1510  UNL1510     0.1146
   6039 H          24.6340    0.8639   34.2431 H     1510  UNL1510     0.1146
   6040 H          25.3725    0.6081   35.6707 H     1510  UNL1510     0.1146
   6041 N          24.4667    3.7275   -0.3617 N.3   1511  UNL1511    -0.3437
   6042 H          24.0097    4.0848    0.4761 H     1511  UNL1511     0.1146
   6043 H          25.1094    4.4581   -0.6643 H     1511  UNL1511     0.1146
   6044 H          25.0496    2.9504   -0.0540 H     1511  UNL1511     0.1146
   6045 N          24.4598    3.9971    2.5943 N.3   1512  UNL1512    -0.3437
   6046 H          24.0312    3.2046    2.1183 H     1512  UNL1512     0.1146
   6047 H          25.0472    3.6007    3.3266 H     1512  UNL1512     0.1146
   6048 H          25.0973    4.4184    1.9202 H     1512  UNL1512     0.1146
   6049 N          24.4861    3.9181    5.3423 N.3   1513  UNL1513    -0.3437
   6050 H          23.9661    3.3659    4.6618 H     1513  UNL1513     0.1146
   6051 H          25.2089    3.3016    5.7109 H     1513  UNL1513     0.1146
   6052 H          24.9744    4.6352    4.8078 H     1513  UNL1513     0.1146
   6053 N          24.4232    3.8707    7.6055 N.3   1514  UNL1514    -0.3437
   6054 H          24.2066    3.8348    8.6006 H     1514  UNL1514     0.1146
   6055 H          25.1764    4.5499    7.5063 H     1514  UNL1514     0.1146
   6056 H          24.8292    2.9653    7.3736 H     1514  UNL1514     0.1146
   6057 N          24.4760    3.9732   10.5727 N.3   1515  UNL1515    -0.3437
   6058 H          23.9889    3.2402   10.0592 H     1515  UNL1515     0.1146
   6059 H          25.1768    3.4998   11.1412 H     1515  UNL1515     0.1146
   6060 H          24.9937    4.5075    9.8763 H     1515  UNL1515     0.1146
   6061 N          24.4490    3.7214   12.8625 N.3   1516  UNL1516    -0.3437
   6062 H          24.0674    4.0633   13.7433 H     1516  UNL1516     0.1146
   6063 H          25.0342    4.4725   12.4995 H     1516  UNL1516     0.1146
   6064 H          25.0848    2.9635   13.1073 H     1516  UNL1516     0.1146
   6065 N          24.4504    3.9664   15.8278 N.3   1517  UNL1517    -0.3437
   6066 H          24.0622    3.2386   15.2295 H     1517  UNL1517     0.1146
   6067 H          25.0641    3.4902   16.4873 H     1517  UNL1517     0.1146
   6068 H          25.0588    4.5254   15.2313 H     1517  UNL1517     0.1146
   6069 N          24.4867    3.9350   18.5370 N.3   1518  UNL1518    -0.3437
   6070 H          24.0001    3.2093   18.0127 H     1518  UNL1518     0.1146
   6071 H          25.3048    3.4855   18.9458 H     1518  UNL1518     0.1146
   6072 H          24.8438    4.5909   17.8437 H     1518  UNL1518     0.1146
   6073 N          24.5296    3.7094   20.7276 N.3   1519  UNL1519    -0.3437
   6074 H          25.0343    2.9729   21.2187 H     1519  UNL1519     0.1146
   6075 H          23.8628    4.0884   21.3986 H     1519  UNL1519     0.1146
   6076 H          25.2086    4.4500   20.5577 H     1519  UNL1519     0.1146
   6077 N          24.4446    3.6474   23.4877 N.3   1520  UNL1520    -0.3437
   6078 H          25.0025    3.0968   24.1388 H     1520  UNL1520     0.1146
   6079 H          24.0855    4.4366   24.0231 H     1520  UNL1520     0.1146
   6080 H          25.1028    4.0400   22.8162 H     1520  UNL1520     0.1146
   6081 N          24.4687    3.9593   26.4230 N.3   1521  UNL1521    -0.3437
   6082 H          24.0032    3.3197   25.7806 H     1521  UNL1521     0.1146
   6083 H          25.1023    3.3870   26.9792 H     1521  UNL1521     0.1146
   6084 H          25.0612    4.5548   25.8463 H     1521  UNL1521     0.1146
   6085 N          24.4614    3.9462   29.0670 N.3   1522  UNL1522    -0.3437
   6086 H          24.0259    3.3238   28.3878 H     1522  UNL1522     0.1146
   6087 H          25.1014    3.3671   29.6087 H     1522  UNL1522     0.1146
   6088 H          25.0467    4.5836   28.5289 H     1522  UNL1522     0.1146
   6089 N          24.4037    3.9448   31.5915 N.3   1523  UNL1523    -0.3437
   6090 H          24.2736    3.0492   31.1231 H     1523  UNL1523     0.1146
   6091 H          24.9253    3.7432   32.4433 H     1523  UNL1523     0.1146
   6092 H          25.0328    4.4835   30.9978 H     1523  UNL1523     0.1146
   6093 N          24.7589    4.0029   35.3754 N.3   1524  UNL1524    -0.3437
   6094 H          23.8686    3.5912   35.6514 H     1524  UNL1524     0.1146
   6095 H          25.3997    3.2220   35.2410 H     1524  UNL1524     0.1146
   6096 H          24.6081    4.4047   34.4512 H     1524  UNL1524     0.1146
   6097 N          24.4628    6.4758   -0.3144 N.3   1525  UNL1525    -0.3437
   6098 H          24.0214    7.0678    0.3878 H     1525  UNL1525     0.1146
   6099 H          25.0522    7.0927   -0.8716 H     1525  UNL1525     0.1146
   6100 H          25.0990    5.8635    0.1942 H     1525  UNL1525     0.1146
   6101 N          24.8352    6.4680    2.6677 N.3   1526  UNL1526    -0.3437
   6102 H          24.3366    7.2079    3.1600 H     1526  UNL1526     0.1146
   6103 H          24.1199    5.8978    2.2188 H     1526  UNL1526     0.1146
   6104 H          25.3437    6.9262    1.9128 H     1526  UNL1526     0.1146
   6105 N          24.5034    6.7936    5.3171 N.3   1527  UNL1527    -0.3437
   6106 H          23.9256    6.3741    4.5901 H     1527  UNL1527     0.1146
   6107 H          24.9731    6.0194    5.7844 H     1527  UNL1527     0.1146
   6108 H          25.2333    7.3127    4.8311 H     1527  UNL1527     0.1146
   6109 N          24.4727    6.7467    7.9662 N.3   1528  UNL1528    -0.3437
   6110 H          23.9916    6.3036    7.1848 H     1528  UNL1528     0.1146
   6111 H          25.0596    6.0242    8.3808 H     1528  UNL1528     0.1146
   6112 H          25.1115    7.4253    7.5542 H     1528  UNL1528     0.1146
   6113 N          24.4983    6.4537   10.2327 N.3   1529  UNL1529    -0.3437
   6114 H          24.9414    5.9290   10.9855 H     1529  UNL1529     0.1146
   6115 H          23.9441    7.1796   10.6847 H     1529  UNL1529     0.1146
   6116 H          25.2517    6.9376    9.7464 H     1529  UNL1529     0.1146
   6117 N          24.4739    6.7585   13.2412 N.3   1530  UNL1530    -0.3437
   6118 H          23.9908    6.3164   12.4605 H     1530  UNL1530     0.1146
   6119 H          25.0234    6.0234   13.6840 H     1530  UNL1530     0.1146
   6120 H          25.1473    7.4015   12.8270 H     1530  UNL1530     0.1146
   6121 N          24.6734    6.4625   15.9405 N.3   1531  UNL1531    -0.3437
   6122 H          24.1051    6.0277   15.2150 H     1531  UNL1531     0.1146
   6123 H          25.5878    6.6253   15.5212 H     1531  UNL1531     0.1146
   6124 H          24.2691    7.3843   16.0992 H     1531  UNL1531     0.1146
   6125 N          24.5509    6.4705   18.1070 N.3   1532  UNL1532    -0.3437
   6126 H          23.8451    6.6780   18.8121 H     1532  UNL1532     0.1146
   6127 H          24.9391    7.3696   17.8252 H     1532  UNL1532     0.1146
   6128 H          25.3002    5.9817   18.5949 H     1532  UNL1532     0.1146
   6129 N          24.4551    6.8388   20.9641 N.3   1533  UNL1533    -0.3437
   6130 H          24.0742    5.9485   21.2813 H     1533  UNL1533     0.1146
   6131 H          25.2217    7.0584   21.5985 H     1533  UNL1533     0.1146
   6132 H          24.8843    6.6540   20.0585 H     1533  UNL1533     0.1146
   6133 N          24.8727    6.7591   23.4626 N.3   1534  UNL1534    -0.3437
   6134 H          24.1789    6.3116   22.8653 H     1534  UNL1534     0.1146
   6135 H          24.3555    7.4014   24.0613 H     1534  UNL1534     0.1146
   6136 H          25.2282    6.0277   24.0767 H     1534  UNL1534     0.1146
   6137 N          24.4381    6.7496   26.4094 N.3   1535  UNL1535    -0.3437
   6138 H          25.0463    6.1784   26.9943 H     1535  UNL1535     0.1146
   6139 H          25.0436    7.4351   25.9600 H     1535  UNL1535     0.1146
   6140 H          24.1073    6.1367   25.6655 H     1535  UNL1535     0.1146
   6141 N          24.5089    6.7999   29.0833 N.3   1536  UNL1536    -0.3437
   6142 H          23.8990    6.2463   28.4833 H     1536  UNL1536     0.1146
   6143 H          25.1066    6.1324   29.5687 H     1536  UNL1536     0.1146
   6144 H          25.1209    7.3212   28.4571 H     1536  UNL1536     0.1146
   6145 N          22.4986    6.8082   31.7066 N.3   1537  UNL1537    -0.3437
   6146 H          23.1382    6.2324   32.2523 H     1537  UNL1537     0.1146
   6147 H          23.0751    7.3001   31.0254 H     1537  UNL1537     0.1146
   6148 H          21.9235    6.1592   31.1714 H     1537  UNL1537     0.1146
   6149 N          24.6918    6.9182   35.1979 N.3   1538  UNL1538    -0.3437
   6150 H          23.8323    6.5903   35.6363 H     1538  UNL1538     0.1146
   6151 H          25.4497    6.4078   35.6490 H     1538  UNL1538     0.1146
   6152 H          24.6616    6.5836   34.2358 H     1538  UNL1538     0.1146
   6153 N          24.4300    9.3372    0.6429 N.3   1539  UNL1539    -0.3437
   6154 H          24.9920    8.6065    0.2086 H     1539  UNL1539     0.1146
   6155 H          25.0711    9.8784    1.2211 H     1539  UNL1539     0.1146
   6156 H          24.1423    9.9569   -0.1132 H     1539  UNL1539     0.1146
   6157 N          24.5538    9.2818    3.3539 N.3   1540  UNL1540    -0.3437
   6158 H          24.0770    9.0968    2.4725 H     1540  UNL1540     0.1146
   6159 H          25.5439    9.1173    3.1776 H     1540  UNL1540     0.1146
   6160 H          24.4606   10.2831    3.5188 H     1540  UNL1540     0.1146
   6161 N          24.4636    9.3437    5.5739 N.3   1541  UNL1541    -0.3437
   6162 H          24.1006   10.1202    6.1249 H     1541  UNL1541     0.1146
   6163 H          25.3220    9.6828    5.1420 H     1541  UNL1541     0.1146
   6164 H          24.7492    8.6323    6.2453 H     1541  UNL1541     0.1146
   6165 N          24.4522    9.2769    8.2839 N.3   1542  UNL1542    -0.3437
   6166 H          24.0576   10.0624    8.7994 H     1542  UNL1542     0.1146
   6167 H          25.1050    9.6805    7.6135 H     1542  UNL1542     0.1146
   6168 H          25.0206    8.7592    8.9526 H     1542  UNL1542     0.1146
   6169 N          24.5064    9.2833   10.8580 N.3   1543  UNL1543    -0.3437
   6170 H          23.9111    9.7118   11.5654 H     1543  UNL1543     0.1146
   6171 H          25.0194   10.0482   10.4218 H     1543  UNL1543     0.1146
   6172 H          25.1984    8.7357   11.3675 H     1543  UNL1543     0.1146
   6173 N          24.4715    9.2473   13.5785 N.3   1544  UNL1544    -0.3437
   6174 H          24.0206    9.8794   14.2385 H     1544  UNL1544     0.1146
   6175 H          24.9037    9.8408   12.8718 H     1544  UNL1544     0.1146
   6176 H          25.2395    8.8114   14.0870 H     1544  UNL1544     0.1146
   6177 N          24.4684    9.2571   18.2086 N.3   1545  UNL1545    -0.3437
   6178 H          24.0047    9.9783   18.7593 H     1545  UNL1545     0.1146
   6179 H          25.0451    9.7504   17.5285 H     1545  UNL1545     0.1146
   6180 H          25.1171    8.7931   18.8428 H     1545  UNL1545     0.1146
   6181 N          24.4579    9.2617   20.8595 N.3   1546  UNL1546    -0.3437
   6182 H          24.0467    9.9518   21.4864 H     1546  UNL1546     0.1146
   6183 H          24.9641    9.7917   20.1515 H     1546  UNL1546     0.1146
   6184 H          25.1668    8.7737   21.4051 H     1546  UNL1546     0.1146
   6185 N          24.8308    9.5327   23.8402 N.3   1547  UNL1547    -0.3437
   6186 H          24.5735   10.2967   23.2169 H     1547  UNL1547     0.1146
   6187 H          23.9540    9.1201   24.1555 H     1547  UNL1547     0.1146
   6188 H          25.2770    8.8294   23.2532 H     1547  UNL1547     0.1146
   6189 N          24.4851    9.6405   26.3946 N.3   1548  UNL1548    -0.3437
   6190 H          23.9567    8.9376   25.8796 H     1548  UNL1548     0.1146
   6191 H          25.0843    9.1257   27.0383 H     1548  UNL1548     0.1146
   6192 H          25.1093   10.0752   25.7166 H     1548  UNL1548     0.1146
   6193 N          24.4768    9.5981   29.0733 N.3   1549  UNL1549    -0.3437
   6194 H          23.9920    8.8882   28.5262 H     1549  UNL1549     0.1146
   6195 H          25.2019    9.1056   29.5930 H     1549  UNL1549     0.1146
   6196 H          24.9647   10.1870   28.3999 H     1549  UNL1549     0.1146
   6197 N          24.4211    9.5772   31.6542 N.3   1550  UNL1550    -0.3437
   6198 H          25.0406    9.1914   32.3653 H     1550  UNL1550     0.1146
   6199 H          24.9932   10.2097   31.0964 H     1550  UNL1550     0.1146
   6200 H          24.1805    8.8006   31.0399 H     1550  UNL1550     0.1146
   6201 N          24.6839    9.7192   35.2865 N.3   1551  UNL1551    -0.3437
   6202 H          23.8533    9.2378   35.6281 H     1551  UNL1551     0.1146
   6203 H          25.4744    9.1261   35.5348 H     1551  UNL1551     0.1146
   6204 H          24.6238    9.6959   34.2696 H     1551  UNL1551     0.1146
   6205 N          24.4824   12.4203    0.0278 N.3   1552  UNL1552    -0.3437
   6206 H          23.9659   11.7908   -0.5849 H     1552  UNL1552     0.1146
   6207 H          25.1436   11.8362    0.5377 H     1552  UNL1552     0.1146
   6208 H          25.0434   13.0107   -0.5846 H     1552  UNL1552     0.1146
   6209 N          24.4696   12.2704    2.2628 N.3   1553  UNL1553    -0.3437
   6210 H          24.0453   12.5757    3.1375 H     1553  UNL1553     0.1146
   6211 H          25.2785   12.8730    2.1177 H     1553  UNL1553     0.1146
   6212 H          24.8420   11.3389    2.4414 H     1553  UNL1553     0.1146
   6213 N          24.4818   12.1943    4.9047 N.3   1554  UNL1554    -0.3437
   6214 H          23.9682   12.5316    5.7176 H     1554  UNL1554     0.1146
   6215 H          25.1488   12.9279    4.6696 H     1554  UNL1554     0.1146
   6216 H          25.0366   11.4043    5.2309 H     1554  UNL1554     0.1146
   6217 N          24.4935   12.2259    7.5295 N.3   1555  UNL1555    -0.3437
   6218 H          25.0278   11.3947    7.7785 H     1555  UNL1555     0.1146
   6219 H          23.9396   12.4606    8.3520 H     1555  UNL1555     0.1146
   6220 H          25.1745   12.9769    7.4260 H     1555  UNL1555     0.1146
   6221 N          24.4902   12.4548   10.2615 N.3   1556  UNL1556    -0.3437
   6222 H          23.9683   11.6470   10.5984 H     1556  UNL1556     0.1146
   6223 H          24.9193   12.8752   11.0846 H     1556  UNL1556     0.1146
   6224 H          25.2575   12.0811    9.7047 H     1556  UNL1556     0.1146
   6225 N          24.4661   12.3743   13.2486 N.3   1557  UNL1557    -0.3437
   6226 H          24.0212   12.0739   12.3824 H     1557  UNL1557     0.1146
   6227 H          24.9675   11.5612   13.6035 H     1557  UNL1557     0.1146
   6228 H          25.1806   13.0487   12.9781 H     1557  UNL1557     0.1146
   6229 N          24.4913   12.1627   15.4728 N.3   1558  UNL1558    -0.3437
   6230 H          23.9463   12.6238   16.1999 H     1558  UNL1558     0.1146
   6231 H          25.1809   12.8459   15.1627 H     1558  UNL1558     0.1146
   6232 H          25.0169   11.4256   15.9406 H     1558  UNL1558     0.1146
   6233 N          24.4986   12.0721   18.1778 N.3   1559  UNL1559    -0.3437
   6234 H          23.9239   12.6899   18.7492 H     1559  UNL1559     0.1146
   6235 H          25.0685   12.6806   17.5920 H     1559  UNL1559     0.1146
   6236 H          25.1445   11.6155   18.8203 H     1559  UNL1559     0.1146
   6237 N          24.8562   12.3517   21.1777 N.3   1560  UNL1560    -0.3437
   6238 H          24.8453   11.3410   21.0477 H     1560  UNL1560     0.1146
   6239 H          25.0319   12.7514   20.2569 H     1560  UNL1560     0.1146
   6240 H          23.9019   12.6140   21.4202 H     1560  UNL1560     0.1146
   6241 N          24.5315   12.4390   23.8182 N.3   1561  UNL1561    -0.3437
   6242 H          23.8534   11.9243   23.2583 H     1561  UNL1561     0.1146
   6243 H          25.1433   11.7377   24.2333 H     1561  UNL1561     0.1146
   6244 H          25.1071   12.9571   23.1560 H     1561  UNL1561     0.1146
   6245 N          24.5048   12.1005   26.0656 N.3   1562  UNL1562    -0.3437
   6246 H          23.9082   12.6327   26.6974 H     1562  UNL1562     0.1146
   6247 H          25.1065   12.7826   25.6062 H     1562  UNL1562     0.1146
   6248 H          25.1159   11.5422   26.6600 H     1562  UNL1562     0.1146
   6249 N          24.4605   12.0747   28.7885 N.3   1563  UNL1563    -0.3437
   6250 H          24.0326   12.8174   29.3396 H     1563  UNL1563     0.1146
   6251 H          25.0032   12.5406   28.0627 H     1563  UNL1563     0.1146
   6252 H          25.1391   11.6253   29.4016 H     1563  UNL1563     0.1146
   6253 N          24.4580   12.4149   31.6951 N.3   1564  UNL1564    -0.3437
   6254 H          24.0364   11.7703   31.0280 H     1564  UNL1564     0.1146
   6255 H          25.0716   11.8509   32.2814 H     1564  UNL1564     0.1146
   6256 H          25.0695   13.0220   31.1511 H     1564  UNL1564     0.1146
   6257 N          24.6814   12.5590   35.1921 N.3   1565  UNL1565    -0.3437
   6258 H          23.9388   12.1955   35.7876 H     1565  UNL1565     0.1146
   6259 H          25.5345   12.0856   35.4863 H     1565  UNL1565     0.1146
   6260 H          24.4807   12.2180   34.2530 H     1565  UNL1565     0.1146
   6261 N          24.4845   14.9030   -0.3062 N.3   1566  UNL1566    -0.3437
   6262 H          23.9583   15.5532    0.2758 H     1566  UNL1566     0.1146
   6263 H          25.0829   15.4771   -0.8984 H     1566  UNL1566     0.1146
   6264 H          25.1098   14.4039    0.3249 H     1566  UNL1566     0.1146
   6265 N          24.4431   14.9479    2.3408 N.3   1567  UNL1567    -0.3437
   6266 H          25.1179   15.4037    1.7283 H     1567  UNL1567     0.1146
   6267 H          24.9811   14.3110    2.9268 H     1567  UNL1567     0.1146
   6268 H          24.0933   15.6747    2.9635 H     1567  UNL1567     0.1146
   6269 N          24.4629   15.2172    5.3077 N.3   1568  UNL1568    -0.3437
   6270 H          24.0211   14.6337    4.5986 H     1568  UNL1568     0.1146
   6271 H          25.1021   14.6070    5.8151 H     1568  UNL1568     0.1146
   6272 H          25.0492   15.8792    4.8013 H     1568  UNL1568     0.1146
   6273 N          24.4575   15.2355    7.9264 N.3   1569  UNL1569    -0.3437
   6274 H          24.0384   14.5607    7.2882 H     1569  UNL1569     0.1146
   6275 H          25.0933   14.7039    8.5194 H     1569  UNL1569     0.1146
   6276 H          25.0462   15.8371    7.3521 H     1569  UNL1569     0.1146
   6277 N          24.4580   15.2532   10.5483 N.3   1570  UNL1570    -0.3437
   6278 H          24.0479   14.6458    9.8402 H     1570  UNL1570     0.1146
   6279 H          24.9563   14.6390   11.1908 H     1570  UNL1570     0.1146
   6280 H          25.1733   15.7991   10.0700 H     1570  UNL1570     0.1146
   6281 N          24.4727   15.2605   13.2004 N.3   1571  UNL1571    -0.3437
   6282 H          23.9914   14.5930   12.5994 H     1571  UNL1571     0.1146
   6283 H          25.0634   14.7065   13.8189 H     1571  UNL1571     0.1146
   6284 H          25.1079   15.7772   12.5939 H     1571  UNL1571     0.1146
   6285 N          24.4635   15.2128   15.8748 N.3   1572  UNL1572    -0.3437
   6286 H          24.0238   14.7752   15.0663 H     1572  UNL1572     0.1146
   6287 H          25.0015   14.4789   16.3334 H     1572  UNL1572     0.1146
   6288 H          25.1467   15.8702   15.5015 H     1572  UNL1572     0.1146
   6289 N          24.4830   14.9547   18.1357 N.3   1573  UNL1573    -0.3437
   6290 H          23.9621   15.4203   18.8774 H     1573  UNL1573     0.1146
   6291 H          25.0852   15.6671   17.7255 H     1573  UNL1573     0.1146
   6292 H          25.1051   14.2951   18.6007 H     1573  UNL1573     0.1146
   6293 N          24.8831   15.0233   21.1583 N.3   1574  UNL1574    -0.3437
   6294 H          24.2791   15.7647   21.5100 H     1574  UNL1574     0.1146
   6295 H          24.2769   14.2203   20.9963 H     1574  UNL1574     0.1146
   6296 H          25.1963   15.3289   20.2380 H     1574  UNL1574     0.1146
   6297 N          24.5410   14.9040   23.4140 N.3   1575  UNL1575    -0.3437
   6298 H          23.8372   15.4244   23.9358 H     1575  UNL1575     0.1146
   6299 H          25.1616   15.6019   23.0065 H     1575  UNL1575     0.1146
   6300 H          25.0956   14.4068   24.1094 H     1575  UNL1575     0.1146
   6301 N          24.4387   15.2244   26.3961 N.3   1576  UNL1576    -0.3437
   6302 H          24.1061   14.5781   25.6819 H     1576  UNL1576     0.1146
   6303 H          25.0149   14.6714   27.0290 H     1576  UNL1576     0.1146
   6304 H          25.0757   15.8632   25.9221 H     1576  UNL1576     0.1146
   6305 N          24.4777   15.2485   29.0642 N.3   1577  UNL1577    -0.3437
   6306 H          23.9774   14.6562   28.4030 H     1577  UNL1577     0.1146
   6307 H          25.0603   14.6218   29.6176 H     1577  UNL1577     0.1146
   6308 H          25.1200   15.8106   28.5075 H     1577  UNL1577     0.1146
   6309 N          24.4678   15.2642   31.6749 N.3   1578  UNL1578    -0.3437
   6310 H          25.0144   14.7042   32.3275 H     1578  UNL1578     0.1146
   6311 H          25.1438   15.7674   31.1019 H     1578  UNL1578     0.1146
   6312 H          24.0094   14.6013   31.0514 H     1578  UNL1578     0.1146
   6313 N          24.7438   15.3188   35.0212 N.3   1579  UNL1579    -0.3437
   6314 H          25.5103   14.6764   35.2160 H     1579  UNL1579     0.1146
   6315 H          24.0260   14.7664   34.5543 H     1579  UNL1579     0.1146
   6316 H          24.3552   15.5756   35.9276 H     1579  UNL1579     0.1146
   6317 N          24.4912   18.1092    2.6210 N.3   1580  UNL1580    -0.3437
   6318 H          23.9730   17.5504    1.9446 H     1580  UNL1580     0.1146
   6319 H          24.8937   17.4471    3.2828 H     1580  UNL1580     0.1146
   6320 H          25.2774   18.5096    2.1111 H     1580  UNL1580     0.1146
   6321 N          24.4960   18.0903    5.2924 N.3   1581  UNL1581    -0.3437
   6322 H          23.9293   17.4300    4.7623 H     1581  UNL1581     0.1146
   6323 H          25.1287   17.5265    5.8583 H     1581  UNL1581     0.1146
   6324 H          25.0814   18.5695    4.6097 H     1581  UNL1581     0.1146
   6325 N          24.4881   18.1086    7.8994 N.3   1582  UNL1582    -0.3437
   6326 H          23.9624   17.4775    7.2963 H     1582  UNL1582     0.1146
   6327 H          24.9676   17.5163    8.5759 H     1582  UNL1582     0.1146
   6328 H          25.2173   18.5139    7.3144 H     1582  UNL1582     0.1146
   6329 N          24.4824   18.0910   10.5583 N.3   1583  UNL1583    -0.3437
   6330 H          23.9727   17.4936    9.9088 H     1583  UNL1583     0.1146
   6331 H          24.9900   17.4621   11.1790 H     1583  UNL1583     0.1146
   6332 H          25.1904   18.5696   10.0033 H     1583  UNL1583     0.1146
   6333 N          24.4362   18.0822   13.1310 N.3   1584  UNL1584    -0.3437
   6334 H          24.1238   17.2681   12.6036 H     1584  UNL1584     0.1146
   6335 H          24.9481   17.7177   13.9331 H     1584  UNL1584     0.1146
   6336 H          25.1273   18.5482   12.5449 H     1584  UNL1584     0.1146
   6337 N          24.6578   18.0590   15.9457 N.3   1585  UNL1585    -0.3437
   6338 H          24.1704   17.1680   16.0293 H     1585  UNL1585     0.1146
   6339 H          25.5986   17.8354   15.6244 H     1585  UNL1585     0.1146
   6340 H          24.2086   18.5539   15.1765 H     1585  UNL1585     0.1146
   6341 N          24.4734   18.0328   18.5256 N.3   1586  UNL1586    -0.3437
   6342 H          24.0568   17.2343   18.0489 H     1586  UNL1586     0.1146
   6343 H          25.3191   17.6828   18.9734 H     1586  UNL1586     0.1146
   6344 H          24.7861   18.6664   17.7913 H     1586  UNL1586     0.1146
   6345 N          24.8652   17.7452   21.1155 N.3   1587  UNL1587    -0.3437
   6346 H          24.2448   17.1713   20.5462 H     1587  UNL1587     0.1146
   6347 H          25.2628   18.4399   20.4848 H     1587  UNL1587     0.1146
   6348 H          24.2626   18.2599   21.7561 H     1587  UNL1587     0.1146
   6349 N          24.8181   18.0398   23.8253 N.3   1588  UNL1588    -0.3437
   6350 H          24.3963   17.1720   24.1530 H     1588  UNL1588     0.1146
   6351 H          25.3717   17.7913   23.0067 H     1588  UNL1588     0.1146
   6352 H          24.0493   18.6131   23.4808 H     1588  UNL1588     0.1146
   6353 N          24.4775   18.0958   26.3903 N.3   1589  UNL1589    -0.3437
   6354 H          23.9786   17.3999   25.8380 H     1589  UNL1589     0.1146
   6355 H          25.0507   17.5723   27.0505 H     1589  UNL1589     0.1146
   6356 H          25.1287   18.5482   25.7503 H     1589  UNL1589     0.1146
   6357 N          24.4846   18.0915   29.0461 N.3   1590  UNL1590    -0.3437
   6358 H          23.9581   17.4269   28.4809 H     1590  UNL1590     0.1146
   6359 H          25.0742   17.5321   29.6609 H     1590  UNL1590     0.1146
   6360 H          25.1185   18.5657   28.4045 H     1590  UNL1590     0.1146
   6361 N          24.4475   18.0893   31.6306 N.3   1591  UNL1591    -0.3437
   6362 H          24.0772   17.2958   31.1095 H     1591  UNL1591     0.1146
   6363 H          24.9858   17.6934   32.4000 H     1591  UNL1591     0.1146
   6364 H          25.1249   18.5378   31.0156 H     1591  UNL1591     0.1146
   6365 N          24.5305   18.1539   35.0875 N.3   1592  UNL1592    -0.3437
   6366 H          25.4176   18.3182   35.5613 H     1592  UNL1592     0.1146
   6367 H          24.7348   17.5105   34.3241 H     1592  UNL1592     0.1146
   6368 H          23.9525   17.6337   35.7461 H     1592  UNL1592     0.1146
   6369 N          22.4977   20.5403   -0.3174 N.3   1593  UNL1593    -0.3437
   6370 H          21.9253   21.1405    0.2746 H     1593  UNL1593     0.1146
   6371 H          23.0805   21.1659   -0.8718 H     1593  UNL1593     0.1146
   6372 H          23.1319   20.0487    0.3107 H     1593  UNL1593     0.1146
   6373 N          24.4780   20.5576    2.3254 N.3   1594  UNL1594    -0.3437
   6374 H          23.9758   21.1939    2.9430 H     1594  UNL1594     0.1146
   6375 H          25.0966   21.1411    1.7639 H     1594  UNL1594     0.1146
   6376 H          25.0850   20.0028    2.9271 H     1594  UNL1594     0.1146
   6377 N          24.4664   20.5589    4.9785 N.3   1595  UNL1595    -0.3437
   6378 H          24.0096   21.2363    5.5875 H     1595  UNL1595     0.1146
   6379 H          25.0875   21.0970    4.3759 H     1595  UNL1595     0.1146
   6380 H          25.0718   20.0031    5.5809 H     1595  UNL1595     0.1146
   6381 N          24.4265   20.5902    7.6470 N.3   1596  UNL1596    -0.3437
   6382 H          24.1589   21.3749    8.2395 H     1596  UNL1596     0.1146
   6383 H          25.0793   20.9662    6.9608 H     1596  UNL1596     0.1146
   6384 H          24.9707   19.9641    8.2388 H     1596  UNL1596     0.1146
   6385 N          24.4308   20.5787   10.2927 N.3   1597  UNL1597    -0.3437
   6386 H          24.1497   21.4429   10.7537 H     1597  UNL1597     0.1146
   6387 H          25.1344   20.8434    9.6046 H     1597  UNL1597     0.1146
   6388 H          24.9205   20.0303   10.9983 H     1597  UNL1597     0.1146
   6389 N          24.4320   20.5871   12.9220 N.3   1598  UNL1598    -0.3437
   6390 H          24.1343   21.3464   13.5327 H     1598  UNL1598     0.1146
   6391 H          25.0817   21.0012   12.2550 H     1598  UNL1598     0.1146
   6392 H          24.9874   19.9606   13.5029 H     1598  UNL1598     0.1146
   6393 N          24.4614   20.5759   15.5312 N.3   1599  UNL1599    -0.3437
   6394 H          24.0255   21.1823   16.2245 H     1599  UNL1599     0.1146
   6395 H          25.0630   21.1775   14.9703 H     1599  UNL1599     0.1146
   6396 H          25.0856   19.9596   16.0499 H     1599  UNL1599     0.1146
   6397 N          24.5022   20.5389   18.1656 N.3   1600  UNL1600    -0.3437
   6398 H          23.9170   21.2044   18.6687 H     1600  UNL1600     0.1146
   6399 H          25.1655   21.0971   17.6300 H     1600  UNL1600     0.1146
   6400 H          25.0507   20.0549   18.8749 H     1600  UNL1600     0.1146
   6401 N          24.4732   20.8720   21.1516 N.3   1601  UNL1601    -0.3437
   6402 H          24.9601   21.4783   20.4931 H     1601  UNL1601     0.1146
   6403 H          24.0027   20.1654   20.5879 H     1601  UNL1601     0.1146
   6404 H          25.1994   20.3797   21.6699 H     1601  UNL1601     0.1146
   6405 N          24.4866   20.6059   23.4072 N.3   1602  UNL1602    -0.3437
   6406 H          23.9525   21.0214   24.1690 H     1602  UNL1602     0.1146
   6407 H          25.0896   21.3459   23.0506 H     1602  UNL1602     0.1146
   6408 H          25.1067   19.9222   23.8391 H     1602  UNL1602     0.1146
   6409 N          24.4521   20.5602   26.1237 N.3   1603  UNL1603    -0.3437
   6410 H          24.0566   21.3098   26.6894 H     1603  UNL1603     0.1146
   6411 H          25.0854   21.0101   25.4643 H     1603  UNL1603     0.1146
   6412 H          25.0413   20.0153   26.7517 H     1603  UNL1603     0.1146
   6413 N          24.4705   20.5540   28.7462 N.3   1604  UNL1604    -0.3437
   6414 H          23.9974   21.2410   29.3315 H     1604  UNL1604     0.1146
   6415 H          25.0981   21.0836   28.1429 H     1604  UNL1604     0.1146
   6416 H          25.0693   20.0168   29.3718 H     1604  UNL1604     0.1146
   6417 N          24.4599   20.5534   31.4020 N.3   1605  UNL1605    -0.3437
   6418 H          24.0300   21.2736   31.9806 H     1605  UNL1605     0.1146
   6419 H          25.0728   21.0439   30.7522 H     1605  UNL1605     0.1146
   6420 H          25.0727   20.0245   32.0210 H     1605  UNL1605     0.1146
   6421 N          24.3773   20.8057   34.1422 N.3   1606  UNL1606    -0.3437
   6422 H          24.5691   19.8743   33.7760 H     1606  UNL1606     0.1146
   6423 H          24.6541   20.7846   35.1226 H     1606  UNL1606     0.1146
   6424 H          25.0349   21.4308   33.6782 H     1606  UNL1606     0.1146
   6425 N          24.4699   23.3737   -0.3020 N.3   1607  UNL1607    -0.3437
   6426 H          23.9992   24.0593    0.2869 H     1607  UNL1607     0.1146
   6427 H          25.0934   23.9050   -0.9081 H     1607  UNL1607     0.1146
   6428 H          25.0729   22.8364    0.3193 H     1607  UNL1607     0.1146
   6429 N          24.4764   23.3977    2.3087 N.3   1608  UNL1608    -0.3437
   6430 H          23.9809   23.9881    2.9752 H     1608  UNL1608     0.1146
   6431 H          25.1174   24.0135    1.8104 H     1608  UNL1608     0.1146
   6432 H          25.0606   22.7752    2.8651 H     1608  UNL1608     0.1146
   6433 N          24.4627   23.3986    4.9637 N.3   1609  UNL1609    -0.3437
   6434 H          24.0219   24.0342    5.6271 H     1609  UNL1609     0.1146
   6435 H          25.1044   23.9676    4.4134 H     1609  UNL1609     0.1146
   6436 H          25.0464   22.7741    5.5185 H     1609  UNL1609     0.1146
   6437 N          24.4698   23.3872    7.6067 N.3   1610  UNL1610    -0.3437
   6438 H          23.9997   23.9950    8.2761 H     1610  UNL1610     0.1146
   6439 H          25.0696   23.9939    7.0495 H     1610  UNL1610     0.1146
   6440 H          25.0963   22.7985    8.1537 H     1610  UNL1610     0.1146
   6441 N          24.4812   23.3854   10.2369 N.3   1611  UNL1611    -0.3437
   6442 H          23.9669   23.9858   10.8797 H     1611  UNL1611     0.1146
   6443 H          25.1042   24.0005    9.7155 H     1611  UNL1611     0.1146
   6444 H          25.0830   22.8028   10.8173 H     1611  UNL1611     0.1146
   6445 N          24.4696   23.3850   12.8907 N.3   1612  UNL1612    -0.3437
   6446 H          24.0000   24.0288   13.5258 H     1612  UNL1612     0.1146
   6447 H          25.0942   23.9560   12.3229 H     1612  UNL1612     0.1146
   6448 H          25.0716   22.8048   13.4733 H     1612  UNL1612     0.1146
   6449 N          24.4575   23.3905   15.5410 N.3   1613  UNL1613    -0.3437
   6450 H          24.0383   24.0705   16.1737 H     1613  UNL1613     0.1146
   6451 H          25.0908   23.9178   14.9416 H     1613  UNL1613     0.1146
   6452 H          25.0488   22.7956   16.1197 H     1613  UNL1613     0.1146
   6453 N          24.5258   23.4719   18.0808 N.3   1614  UNL1614    -0.3437
   6454 H          24.0598   24.2362   18.5677 H     1614  UNL1614     0.1146
   6455 H          25.4914   23.7698   17.9494 H     1614  UNL1614     0.1146
   6456 H          24.5585   22.6966   18.7413 H     1614  UNL1614     0.1146
   6457 N          24.4772   23.3624   20.8288 N.3   1615  UNL1615    -0.3437
   6458 H          23.9783   24.0325   21.4123 H     1615  UNL1615     0.1146
   6459 H          25.0683   23.9148   20.2093 H     1615  UNL1615     0.1146
   6460 H          25.1115   22.8648   21.4521 H     1615  UNL1615     0.1146
   6461 N          24.4759   23.3931   23.4397 N.3   1616  UNL1616    -0.3437
   6462 H          23.9827   24.0066   24.0868 H     1616  UNL1616     0.1146
   6463 H          25.1208   23.9896   22.9233 H     1616  UNL1616     0.1146
   6464 H          25.0561   22.7852   24.0160 H     1616  UNL1616     0.1146
   6465 N          24.4588   23.3964   26.0970 N.3   1617  UNL1617    -0.3437
   6466 H          24.0340   24.0448   26.7583 H     1617  UNL1617     0.1146
   6467 H          25.0906   23.9537   25.5237 H     1617  UNL1617     0.1146
   6468 H          25.0520   22.7795   26.6501 H     1617  UNL1617     0.1146
   6469 N          24.4639   23.3930   28.7347 N.3   1618  UNL1618    -0.3437
   6470 H          24.0185   24.0503   29.3735 H     1618  UNL1618     0.1146
   6471 H          25.1094   23.9436   28.1702 H     1618  UNL1618     0.1146
   6472 H          25.0437   22.7875   29.3140 H     1618  UNL1618     0.1146
   6473 N          24.4533   23.4017   31.3808 N.3   1619  UNL1619    -0.3437
   6474 H          24.0519   24.0208   32.0836 H     1619  UNL1619     0.1146
   6475 H          25.0598   23.9851   30.8061 H     1619  UNL1619     0.1146
   6476 H          25.0703   22.7668   31.8853 H     1619  UNL1619     0.1146
   6477 N          24.5522   23.8192   34.1873 N.3   1620  UNL1620    -0.3437
   6478 H          23.9095   23.1596   33.7510 H     1620  UNL1620     0.1146
   6479 H          24.7492   23.4473   35.1153 H     1620  UNL1620     0.1146
   6480 H          25.4245   23.7484   33.6654 H     1620  UNL1620     0.1146
   6481 N          24.4732   26.2456   -0.3485 N.3   1621  UNL1621    -0.3437
   6482 H          23.9965   26.8137    0.3503 H     1621  UNL1621     0.1146
   6483 H          25.1706   26.8532   -0.7763 H     1621  UNL1621     0.1146
   6484 H          24.9952   25.5411    0.1707 H     1621  UNL1621     0.1146
   6485 N          24.8770   26.4262    2.3006 N.3   1622  UNL1622    -0.3437
   6486 H          25.1808   25.8282    3.0677 H     1622  UNL1622     0.1146
   6487 H          24.0982   25.9408    1.8575 H     1622  UNL1622     0.1146
   6488 H          24.4794   27.2584    2.7337 H     1622  UNL1622     0.1146
   6489 N          24.4846   26.2418    4.9252 N.3   1623  UNL1623    -0.3437
   6490 H          23.9582   26.7073    5.6632 H     1623  UNL1623     0.1146
   6491 H          25.1136   26.9459    4.5420 H     1623  UNL1623     0.1146
   6492 H          25.0790   25.5586    5.3923 H     1623  UNL1623     0.1146
   6493 N          24.4596   26.5236    7.9199 N.3   1624  UNL1624    -0.3437
   6494 H          24.0320   25.8106    7.3307 H     1624  UNL1624     0.1146
   6495 H          25.1052   26.0300    8.5346 H     1624  UNL1624     0.1146
   6496 H          25.0385   27.0894    7.3008 H     1624  UNL1624     0.1146
   6497 N          24.4695   26.4696   10.6130 N.3   1625  UNL1625    -0.3437
   6498 H          24.0005   26.0267    9.8241 H     1625  UNL1625     0.1146
   6499 H          25.0976   25.7654   10.9977 H     1625  UNL1625     0.1146
   6500 H          25.0678   27.1919   10.2145 H     1625  UNL1625     0.1146
   6501 N          24.4568   26.2451   12.8727 N.3   1626  UNL1626    -0.3437
   6502 H          24.0413   26.7954   13.6230 H     1626  UNL1626     0.1146
   6503 H          25.0996   26.8703   12.3887 H     1626  UNL1626     0.1146
   6504 H          25.0378   25.5427   13.3282 H     1626  UNL1626     0.1146
   6505 N          24.4455   26.4522   15.8783 N.3   1627  UNL1627    -0.3437
   6506 H          24.0815   25.9716   15.0569 H     1627  UNL1627     0.1146
   6507 H          25.1001   25.8049   16.3154 H     1627  UNL1627     0.1146
   6508 H          25.0083   27.2249   15.5253 H     1627  UNL1627     0.1146
   6509 N          24.5026   26.2535   18.1093 N.3   1628  UNL1628    -0.3437
   6510 H          23.9134   26.6035   18.8634 H     1628  UNL1628     0.1146
   6511 H          25.0982   27.0329   17.8332 H     1628  UNL1628     0.1146
   6512 H          25.1213   25.5637   18.5334 H     1628  UNL1628     0.1146
   6513 N          24.4700   26.2089   20.8087 N.3   1629  UNL1629    -0.3437
   6514 H          23.9993   26.8474   21.4483 H     1629  UNL1629     0.1146
   6515 H          25.1058   26.7826   20.2565 H     1629  UNL1629     0.1146
   6516 H          25.0603   25.6146   21.3890 H     1629  UNL1629     0.1146
   6517 N          24.4641   26.2188   23.4475 N.3   1630  UNL1630    -0.3437
   6518 H          24.0179   26.8525   24.1091 H     1630  UNL1630     0.1146
   6519 H          25.1102   26.7895   22.9041 H     1630  UNL1630     0.1146
   6520 H          25.0432   25.5927   24.0052 H     1630  UNL1630     0.1146
   6521 N          24.4577   26.2223   26.0930 N.3   1631  UNL1631    -0.3437
   6522 H          24.0384   26.8647   26.7637 H     1631  UNL1631     0.1146
   6523 H          25.1016   26.7804   25.5342 H     1631  UNL1631     0.1146
   6524 H          25.0378   25.5862   26.6382 H     1631  UNL1631     0.1146
   6525 N          24.4521   26.2180   28.7448 N.3   1632  UNL1632    -0.3437
   6526 H          24.0579   26.9132   29.3770 H     1632  UNL1632     0.1146
   6527 H          25.1056   26.7211   28.1463 H     1632  UNL1632     0.1146
   6528 H          25.0198   25.6013   29.3243 H     1632  UNL1632     0.1146
   6529 N          24.4480   26.2271   31.3829 N.3   1633  UNL1633    -0.3437
   6530 H          24.0703   26.8554   32.0906 H     1633  UNL1633     0.1146
   6531 H          25.0632   26.7954   30.8023 H     1633  UNL1633     0.1146
   6532 H          25.0538   25.5757   31.8799 H     1633  UNL1633     0.1146
   6533 N          24.5306   26.5958   34.3098 N.3   1634  UNL1634    -0.3437
   6534 H          23.8699   26.0225   33.7872 H     1634  UNL1634     0.1146
   6535 H          24.9800   25.9696   34.9764 H     1634  UNL1634     0.1146
   6536 H          25.2549   26.8656   33.6457 H     1634  UNL1634     0.1146
   6537 N          24.4685   30.0552   -0.3374 N.3   1635  UNL1635    -0.3437
   6538 H          24.0121   30.6849    0.3210 H     1635  UNL1635     0.1146
   6539 H          25.1746   30.6128   -0.8159 H     1635  UNL1635     0.1146
   6540 H          24.9802   29.3798    0.2286 H     1635  UNL1635     0.1146
   6541 N          24.5107   30.0515    2.2706 N.3   1636  UNL1636    -0.3437
   6542 H          23.8962   30.4263    2.9919 H     1636  UNL1636     0.1146
   6543 H          25.0768   30.8353    1.9487 H     1636  UNL1636     0.1146
   6544 H          25.1517   29.4196    2.7482 H     1636  UNL1636     0.1146
   6545 N          24.4093   30.1359    4.9795 N.3   1637  UNL1637    -0.3437
   6546 H          24.2414   30.5311    5.9036 H     1637  UNL1637     0.1146
   6547 H          25.0395   30.7829    4.5076 H     1637  UNL1637     0.1146
   6548 H          24.9452   29.2828    5.1320 H     1637  UNL1637     0.1146
   6549 N          24.3708   29.2086    7.8325 N.3   1638  UNL1638    -0.3437
   6550 H          24.8469   30.1088    7.7967 H     1638  UNL1638     0.1146
   6551 H          24.5453   28.7625    6.9331 H     1638  UNL1638     0.1146
   6552 H          24.8725   28.6528    8.5237 H     1638  UNL1638     0.1146
   6553 N          24.4728   30.1012   10.1977 N.3   1639  UNL1639    -0.3437
   6554 H          23.9916   30.4674   11.0179 H     1639  UNL1639     0.1146
   6555 H          25.1188   30.8316    9.9017 H     1639  UNL1639     0.1146
   6556 H          25.0522   29.3325   10.5319 H     1639  UNL1639     0.1146
   6557 N          24.4728   30.1012   12.8386 N.3   1640  UNL1640    -0.3437
   6558 H          23.9916   30.4674   13.6588 H     1640  UNL1640     0.1146
   6559 H          25.1188   30.8316   12.5426 H     1640  UNL1640     0.1146
   6560 H          25.0522   29.3325   13.1727 H     1640  UNL1640     0.1146
   6561 N          24.4810   30.1012   15.4725 N.3   1641  UNL1641    -0.3437
   6562 H          23.9693   30.4674   16.2740 H     1641  UNL1641     0.1146
   6563 H          25.1377   30.8316   15.2011 H     1641  UNL1641     0.1146
   6564 H          25.0474   29.3325   15.8283 H     1641  UNL1641     0.1146
   6565 N          24.4567   30.0563   18.1604 N.3   1642  UNL1642    -0.3437
   6566 H          24.0503   30.7258   18.8123 H     1642  UNL1642     0.1146
   6567 H          25.1641   30.5690   17.6358 H     1642  UNL1642     0.1146
   6568 H          24.9643   29.3815   18.7308 H     1642  UNL1642     0.1146
   6569 N          24.4139   30.1648   20.8111 N.3   1643  UNL1643    -0.3437
   6570 H          24.2251   30.4628   21.7671 H     1643  UNL1643     0.1146
   6571 H          25.0904   30.8295   20.4382 H     1643  UNL1643     0.1146
   6572 H          24.9059   29.2756   20.8860 H     1643  UNL1643     0.1146
   6573 N          24.5132   29.1264   23.3656 N.3   1644  UNL1644    -0.3437
   6574 H          24.0095   28.8115   24.1935 H     1644  UNL1644     0.1146
   6575 H          24.6873   30.1209   23.5041 H     1644  UNL1644     0.1146
   6576 H          25.4254   28.6738   23.4027 H     1644  UNL1644     0.1146
   6577 N          24.4728   30.1012   26.0427 N.3   1645  UNL1645    -0.3437
   6578 H          23.9916   30.4674   26.8629 H     1645  UNL1645     0.1146
   6579 H          25.1188   30.8316   25.7467 H     1645  UNL1645     0.1146
   6580 H          25.0522   29.3325   26.3769 H     1645  UNL1645     0.1146
   6581 N          24.4731   30.1014   28.6832 N.3   1646  UNL1646    -0.3437
   6582 H          23.9904   30.4602   29.5058 H     1646  UNL1646     0.1146
   6583 H          25.1149   30.8371   28.3910 H     1646  UNL1646     0.1146
   6584 H          25.0569   29.3340   29.0125 H     1646  UNL1646     0.1146
   6585 N          24.3688   30.2400   31.5358 N.3   1647  UNL1647    -0.3437
   6586 H          24.7829   30.3552   32.4597 H     1647  UNL1647     0.1146
   6587 H          24.8968   30.8501   30.9133 H     1647  UNL1647     0.1146
   6588 H          24.5870   29.2875   31.2470 H     1647  UNL1647     0.1146
   6589 N          24.3670   29.1381   34.1672 N.3   1648  UNL1648    -0.3437
   6590 H          24.7945   28.7240   34.9944 H     1648  UNL1648     0.1146
   6591 H          24.6126   30.1268   34.1892 H     1648  UNL1648     0.1146
   6592 H          24.8613   28.7437   33.3682 H     1648  UNL1648     0.1146
   6593 N          26.9842    0.9035    0.6850 N.3   1649  UNL1649    -0.3437
   6594 H          27.6037    0.1384    0.4221 H     1649  UNL1649     0.1146
   6595 H          27.5877    1.6452    1.0374 H     1649  UNL1649     0.1146
   6596 H          26.5866    1.2546   -0.1851 H     1649  UNL1649     0.1146
   6597 N          27.0110    1.0906    2.9208 N.3   1650  UNL1650    -0.3437
   6598 H          27.5271    1.8255    3.4022 H     1650  UNL1650     0.1146
   6599 H          27.7124    0.4487    2.5542 H     1650  UNL1650     0.1146
   6600 H          26.5118    0.5769    3.6455 H     1650  UNL1650     0.1146
   6601 N          26.9329    0.9185    5.6430 N.3   1651  UNL1651    -0.3437
   6602 H          27.7001    0.9864    4.9758 H     1651  UNL1651     0.1146
   6603 H          27.2210    0.2259    6.3328 H     1651  UNL1651     0.1146
   6604 H          26.9083    1.8109    6.1344 H     1651  UNL1651     0.1146
   6605 N          26.9816    0.8652    8.3843 N.3   1652  UNL1652    -0.3437
   6606 H          26.6177    1.5920    8.9988 H     1652  UNL1652     0.1146
   6607 H          27.7292    1.3008    7.8460 H     1652  UNL1652     0.1146
   6608 H          27.4337    0.1837    8.9922 H     1652  UNL1652     0.1146
   6609 N          26.9932    0.8642   10.8694 N.3   1653  UNL1653    -0.3437
   6610 H          26.5579    1.4188   11.6051 H     1653  UNL1653     0.1146
   6611 H          27.6428    1.4889   10.3939 H     1653  UNL1653     0.1146
   6612 H          27.5682    0.1697   11.3442 H     1653  UNL1653     0.1146
   6613 N          26.9748    0.8140   13.5870 N.3   1654  UNL1654    -0.3437
   6614 H          26.6210    1.6507   14.0485 H     1654  UNL1654     0.1146
   6615 H          27.6137    1.1411   12.8637 H     1654  UNL1654     0.1146
   6616 H          27.5527    0.3359   14.2768 H     1654  UNL1654     0.1146
   6617 N          27.0281   -0.8561   18.5242 N.3   1655  UNL1655    -0.3437
   6618 H          26.7381   -1.8318   18.4771 H     1655  UNL1655     0.1146
   6619 H          28.0174   -0.8685   18.7680 H     1655  UNL1655     0.1146
   6620 H          26.9785   -0.5020   17.5699 H     1655  UNL1655     0.1146
   6621 N          27.4014    1.0616   20.7830 N.3   1656  UNL1656    -0.3437
   6622 H          26.8831    1.8641   21.1374 H     1656  UNL1656     0.1146
   6623 H          27.7709    0.5816   21.6024 H     1656  UNL1656     0.1146
   6624 H          26.7068    0.4344   20.3797 H     1656  UNL1656     0.1146
   6625 N          26.9626    1.0596   23.7894 N.3   1657  UNL1657    -0.3437
   6626 H          26.6840    0.8809   22.8257 H     1657  UNL1657     0.1146
   6627 H          27.4388    0.2158   24.1052 H     1657  UNL1657     0.1146
   6628 H          27.6767    1.7853   23.7454 H     1657  UNL1657     0.1146
   6629 N          26.9903    0.8727   26.0714 N.3   1658  UNL1658    -0.3437
   6630 H          26.5886    1.5460   26.7222 H     1658  UNL1658     0.1146
   6631 H          27.7435    1.3621   25.5901 H     1658  UNL1658     0.1146
   6632 H          27.4398    0.1609   26.6455 H     1658  UNL1658     0.1146
   6633 N          27.3742    0.8041   29.0422 N.3   1659  UNL1659    -0.3437
   6634 H          26.7153    0.3052   28.4462 H     1659  UNL1659     0.1146
   6635 H          27.8636    1.4587   28.4336 H     1659  UNL1659     0.1146
   6636 H          26.8091    1.3736   29.6704 H     1659  UNL1659     0.1146
   6637 N          25.2972    0.8396   31.6004 N.3   1660  UNL1660    -0.3437
   6638 H          24.5742    0.2365   31.2105 H     1660  UNL1660     0.1146
   6639 H          25.4345    1.5879   30.9224 H     1660  UNL1660     0.1146
   6640 H          24.8842    1.2777   32.4225 H     1660  UNL1660     0.1146
   6641 N          26.9990   -1.0678   34.3985 N.3   1661  UNL1661    -0.3437
   6642 H          26.6054   -0.4809   33.6644 H     1661  UNL1661     0.1146
   6643 H          27.3171   -1.9190   33.9374 H     1661  UNL1661     0.1146
   6644 H          27.8406   -0.5906   34.7187 H     1661  UNL1661     0.1146
   6645 N          26.9928    3.7543   -0.3647 N.3   1662  UNL1662    -0.3437
   6646 H          26.5606    4.0458    0.5109 H     1662  UNL1662     0.1146
   6647 H          27.6564    4.4882   -0.6083 H     1662  UNL1662     0.1146
   6648 H          27.5524    2.9324   -0.1417 H     1662  UNL1662     0.1146
   6649 N          26.9734    3.9538    2.6246 N.3   1663  UNL1663    -0.3437
   6650 H          26.6305    3.1677    2.0742 H     1663  UNL1663     0.1146
   6651 H          27.6499    3.5642    3.2796 H     1663  UNL1663     0.1146
   6652 H          27.5084    4.5351    1.9810 H     1663  UNL1663     0.1146
   6653 N          27.0061    3.9058    5.3386 N.3   1664  UNL1664    -0.3437
   6654 H          26.5277    3.3799    4.6086 H     1664  UNL1664     0.1146
   6655 H          27.7193    3.2817    5.7130 H     1664  UNL1664     0.1146
   6656 H          27.5091    4.6533    4.8625 H     1664  UNL1664     0.1146
   6657 N          26.9798    3.7662    7.5680 N.3   1665  UNL1665    -0.3437
   6658 H          26.6024    3.9778    8.4906 H     1665  UNL1665     0.1146
   6659 H          27.6108    4.5331    7.3399 H     1665  UNL1665     0.1146
   6660 H          27.5693    2.9437    7.6875 H     1665  UNL1665     0.1146
   6661 N          27.0145    3.9612   10.5913 N.3   1666  UNL1666    -0.3437
   6662 H          26.4971    3.3265    9.9848 H     1666  UNL1666     0.1146
   6663 H          27.6808    3.3824   11.1005 H     1666  UNL1666     0.1146
   6664 H          27.5698    4.5506    9.9727 H     1666  UNL1666     0.1146
   6665 N          26.9771    3.7473   12.8571 N.3   1667  UNL1667    -0.3437
   6666 H          26.6132    4.0775   13.7498 H     1667  UNL1667     0.1146
   6667 H          27.6243    4.4654   12.5347 H     1667  UNL1667     0.1146
   6668 H          27.5477    2.9306   13.0711 H     1667  UNL1667     0.1146
   6669 N          26.9658    3.9401   15.8306 N.3   1668  UNL1668    -0.3437
   6670 H          26.6571    3.2050   15.1960 H     1668  UNL1668     0.1146
   6671 H          27.6132    3.4964   16.4806 H     1668  UNL1668     0.1146
   6672 H          27.5261    4.5793   15.2687 H     1668  UNL1668     0.1146
   6673 N          27.0052    1.7762   18.1064 N.3   1669  UNL1669    -0.3437
   6674 H          26.5503    2.1508   18.9377 H     1669  UNL1669     0.1146
   6675 H          27.7834    2.4027   17.9055 H     1669  UNL1669     0.1146
   6676 H          27.4233    0.8911   18.3897 H     1669  UNL1669     0.1146
   6677 N          26.9758    3.9129   20.8034 N.3   1670  UNL1670    -0.3437
   6678 H          26.6171    3.4453   21.6348 H     1670  UNL1670     0.1146
   6679 H          27.6111    4.6353   21.1395 H     1670  UNL1670     0.1146
   6680 H          27.5582    3.2273   20.3248 H     1670  UNL1670     0.1146
   6681 N          26.9728    3.9595   23.7436 N.3   1671  UNL1671    -0.3437
   6682 H          26.6510    3.0782   23.3460 H     1671  UNL1671     0.1146
   6683 H          27.7177    3.7181   24.3958 H     1671  UNL1671     0.1146
   6684 H          27.4207    4.4650   22.9805 H     1671  UNL1671     0.1146
   6685 N          26.9889    3.9296   26.4340 N.3   1672  UNL1672    -0.3437
   6686 H          26.5719    3.3471   25.7093 H     1672  UNL1672     0.1146
   6687 H          27.6381    3.3280   26.9390 H     1672  UNL1672     0.1146
   6688 H          27.5632    4.6160   25.9468 H     1672  UNL1672     0.1146
   6689 N          26.9824    3.9481   29.0518 N.3   1673  UNL1673    -0.3437
   6690 H          26.5927    3.3020   28.3669 H     1673  UNL1673     0.1146
   6691 H          27.5978    3.3921   29.6440 H     1673  UNL1673     0.1146
   6692 H          27.5893    4.5785   28.5297 H     1673  UNL1673     0.1146
   6693 N          26.9932    3.9422   31.7112 N.3   1674  UNL1674    -0.3437
   6694 H          26.5581    3.3216   31.0301 H     1674  UNL1674     0.1146
   6695 H          27.6453    3.3651   32.2405 H     1674  UNL1674     0.1146
   6696 H          27.5655    4.5919   31.1739 H     1674  UNL1674     0.1146
   6697 N          27.0809    1.6665   34.4166 N.3   1675  UNL1675    -0.3437
   6698 H          26.3838    1.8126   33.6879 H     1675  UNL1675     0.1146
   6699 H          27.8435    1.1530   33.9770 H     1675  UNL1675     0.1146
   6700 H          27.4540    2.5886   34.6375 H     1675  UNL1675     0.1146
   6701 N          26.9991    6.5700    0.7083 N.3   1676  UNL1676    -0.3437
   6702 H          27.7395    5.8724    0.6486 H     1676  UNL1676     0.1146
   6703 H          27.4678    7.4689    0.8117 H     1676  UNL1676     0.1146
   6704 H          26.5559    6.5884   -0.2091 H     1676  UNL1676     0.1146
   6705 N          27.0049    6.4987    2.9384 N.3   1677  UNL1677    -0.3437
   6706 H          26.5512    7.2007    3.5212 H     1677  UNL1677     0.1146
   6707 H          27.7830    6.9728    2.4820 H     1677  UNL1677     0.1146
   6708 H          27.4230    5.8276    3.5811 H     1677  UNL1677     0.1146
   6709 N          27.0061    6.4831    5.5892 N.3   1678  UNL1678    -0.3437
   6710 H          26.5226    7.1158    6.2250 H     1678  UNL1678     0.1146
   6711 H          27.6905    7.0523    5.0931 H     1678  UNL1678     0.1146
   6712 H          27.5430    5.8486    6.1787 H     1678  UNL1678     0.1146
   6713 N          26.9863    6.4466    8.2946 N.3   1679  UNL1679    -0.3437
   6714 H          26.5813    7.2639    8.7489 H     1679  UNL1679     0.1146
   6715 H          27.6418    6.8062    7.6022 H     1679  UNL1679     0.1146
   6716 H          27.5528    5.9831    9.0036 H     1679  UNL1679     0.1146
   6717 N          27.0227    6.4544   10.8796 N.3   1680  UNL1680    -0.3437
   6718 H          26.4747    7.0084   11.5361 H     1680  UNL1680     0.1146
   6719 H          27.5861    7.1200   10.3523 H     1680  UNL1680     0.1146
   6720 H          27.6787    5.9170   11.4447 H     1680  UNL1680     0.1146
   6721 N          26.9691    6.4822   13.5600 N.3   1681  UNL1681    -0.3437
   6722 H          26.6429    7.1489   14.2581 H     1681  UNL1681     0.1146
   6723 H          27.5449    7.0154   12.9099 H     1681  UNL1681     0.1146
   6724 H          27.6053    5.8533   14.0479 H     1681  UNL1681     0.1146
   6725 N          26.9630    4.7193   18.1714 N.3   1682  UNL1682    -0.3437
   6726 H          27.0156    5.1817   19.0779 H     1682  UNL1682     0.1146
   6727 H          27.8638    4.8785   17.7222 H     1682  UNL1682     0.1146
   6728 H          26.9198    3.7203   18.3677 H     1682  UNL1682     0.1146
   6729 N          26.9933    6.8060   20.8503 N.3   1683  UNL1683    -0.3437
   6730 H          26.5596    5.9996   21.2975 H     1683  UNL1683     0.1146
   6731 H          27.5457    7.2648   21.5733 H     1683  UNL1683     0.1146
   6732 H          27.6636    6.4294   20.1814 H     1683  UNL1683     0.1146
   6733 N          27.0021    6.4733   23.7863 N.3   1684  UNL1684    -0.3437
   6734 H          27.9131    6.0232   23.7092 H     1684  UNL1684     0.1146
   6735 H          27.1818    7.4125   24.1384 H     1684  UNL1684     0.1146
   6736 H          26.6653    6.5909   22.8318 H     1684  UNL1684     0.1146
   6737 N          27.0009    6.8053   26.3947 N.3   1685  UNL1685    -0.3437
   6738 H          26.5512    6.2244   25.6885 H     1685  UNL1685     0.1146
   6739 H          27.4658    6.1617   27.0334 H     1685  UNL1685     0.1146
   6740 H          27.7444    7.3084   25.9125 H     1685  UNL1685     0.1146
   6741 N          27.0607    6.7829   29.1115 N.3   1686  UNL1686    -0.3437
   6742 H          26.5092    5.9740   28.8288 H     1686  UNL1686     0.1146
   6743 H          27.9712    6.4190   29.3890 H     1686  UNL1686     0.1146
   6744 H          27.2212    7.3239   28.2631 H     1686  UNL1686     0.1146
   6745 N          25.0069    6.7930   31.6984 N.3   1687  UNL1687    -0.3437
   6746 H          25.6413    6.2440   32.2768 H     1687  UNL1687     0.1146
   6747 H          25.5982    7.3390   31.0733 H     1687  UNL1687     0.1146
   6748 H          24.5159    6.1239   31.1072 H     1687  UNL1687     0.1146
   6749 N          27.0736    4.3658   34.0989 N.3   1688  UNL1688    -0.3437
   6750 H          26.4846    5.1590   33.8493 H     1688  UNL1688     0.1146
   6751 H          27.9794    4.5415   33.6664 H     1688  UNL1688     0.1146
   6752 H          27.2247    4.4337   35.1044 H     1688  UNL1688     0.1146
   6753 N          27.0002    9.5006   -0.3701 N.3   1689  UNL1689    -0.3437
   6754 H          26.5350    9.2850    0.5104 H     1689  UNL1689     0.1146
   6755 H          27.6191   10.2864   -0.1758 H     1689  UNL1689     0.1146
   6756 H          27.6079    8.7070   -0.5684 H     1689  UNL1689     0.1146
   6757 N          27.3401    9.4606    2.2354 N.3   1690  UNL1690    -0.3437
   6758 H          26.9284    8.5421    2.3939 H     1690  UNL1690     0.1146
   6759 H          26.5694   10.1257    2.2817 H     1690  UNL1690     0.1146
   6760 H          27.9243    9.6507    3.0484 H     1690  UNL1690     0.1146
   6761 N          27.3495    9.2983    4.9291 N.3   1691  UNL1691    -0.3437
   6762 H          27.9267    9.7223    5.6539 H     1691  UNL1691     0.1146
   6763 H          26.6824    8.7006    5.4151 H     1691  UNL1691     0.1146
   6764 H          26.8035   10.0577    4.5247 H     1691  UNL1691     0.1146
   6765 N          27.3976    9.6425    7.6982 N.3   1692  UNL1692    -0.3437
   6766 H          27.7921    8.7584    8.0161 H     1692  UNL1692     0.1146
   6767 H          26.7806    9.4114    6.9209 H     1692  UNL1692     0.1146
   6768 H          26.7918    9.9666    8.4508 H     1692  UNL1692     0.1146
   6769 N          26.9739    9.5840   10.5575 N.3   1693  UNL1693    -0.3437
   6770 H          26.6247    8.8771    9.9119 H     1693  UNL1693     0.1146
   6771 H          27.6190    9.1008   11.1810 H     1693  UNL1693     0.1146
   6772 H          27.5445   10.2171    9.9989 H     1693  UNL1693     0.1146
   6773 N          27.0157    9.5931   13.2396 N.3   1694  UNL1694    -0.3437
   6774 H          26.4935    8.9912   12.6046 H     1694  UNL1694     0.1146
   6775 H          27.6793    8.9867   13.7196 H     1694  UNL1694     0.1146
   6776 H          27.5737   10.2079   12.6488 H     1694  UNL1694     0.1146
   6777 N          26.9717    9.4176   15.4971 N.3   1695  UNL1695    -0.3437
   6778 H          26.6369    9.4301   16.4595 H     1695  UNL1695     0.1146
   6779 H          27.5076   10.2757   15.3751 H     1695  UNL1695     0.1146
   6780 H          27.6461    8.6555   15.4443 H     1695  UNL1695     0.1146
   6781 N          27.0399    7.5328   18.0962 N.3   1696  UNL1696    -0.3437
   6782 H          26.4383    7.3590   18.9001 H     1696  UNL1696     0.1146
   6783 H          27.7279    8.2189   18.4033 H     1696  UNL1696     0.1146
   6784 H          27.5561    6.6683   17.9396 H     1696  UNL1696     0.1146
   6785 N          26.9182    9.5294   20.8980 N.3   1697  UNL1697    -0.3437
   6786 H          27.3932    9.0077   20.1628 H     1697  UNL1697     0.1146
   6787 H          26.9244    8.9263   21.7194 H     1697  UNL1697     0.1146
   6788 H          27.5264   10.3156   21.1223 H     1697  UNL1697     0.1146
   6789 N          27.3621    9.6179   23.7837 N.3   1698  UNL1698    -0.3437
   6790 H          26.8722   10.1345   23.0547 H     1698  UNL1698     0.1146
   6791 H          26.6410    9.1396   24.3219 H     1698  UNL1698     0.1146
   6792 H          27.8869    8.8869   23.3055 H     1698  UNL1698     0.1146
   6793 N          27.0106    9.6004   26.4326 N.3   1699  UNL1699    -0.3437
   6794 H          26.5179    8.8896   25.8937 H     1699  UNL1699     0.1146
   6795 H          27.7363    9.1072   26.9509 H     1699  UNL1699     0.1146
   6796 H          27.4975   10.1817   25.7519 H     1699  UNL1699     0.1146
   6797 N          27.0020    9.2775   29.0526 N.3   1700  UNL1700    -0.3437
   6798 H          26.5774    9.6836   28.2201 H     1700  UNL1700     0.1146
   6799 H          27.8154    8.7568   28.7276 H     1700  UNL1700     0.1146
   6800 H          27.3674   10.0610   29.5922 H     1700  UNL1700     0.1146
   6801 N          26.9330    9.4941   31.4026 N.3   1701  UNL1701    -0.3437
   6802 H          26.8174    9.0662   32.3201 H     1701  UNL1701     0.1146
   6803 H          27.4676   10.3479   31.5561 H     1701  UNL1701     0.1146
   6804 H          27.5442    8.8707   30.8770 H     1701  UNL1701     0.1146
   6805 N          27.2435    7.1587   34.1271 N.3   1702  UNL1702    -0.3437
   6806 H          26.3984    7.4941   33.6670 H     1702  UNL1702     0.1146
   6807 H          27.9974    7.7648   33.8064 H     1702  UNL1702     0.1146
   6808 H          27.1229    7.3613   35.1185 H     1702  UNL1702     0.1146
   6809 N          27.0453   12.2325    0.2344 N.3   1703  UNL1703    -0.3437
   6810 H          26.7107   13.0244    0.7815 H     1703  UNL1703     0.1146
   6811 H          28.0444   12.3838    0.1033 H     1703  UNL1703     0.1146
   6812 H          26.9618   11.4174    0.8402 H     1703  UNL1703     0.1146
   6813 N          27.1218   12.2313    2.8451 N.3   1704  UNL1704    -0.3437
   6814 H          26.3571   12.6252    3.3914 H     1704  UNL1704     0.1146
   6815 H          27.9181   12.8506    2.9894 H     1704  UNL1704     0.1146
   6816 H          27.3653   11.3510    3.2968 H     1704  UNL1704     0.1146
   6817 N          27.0513   12.2542    5.5110 N.3   1705  UNL1705    -0.3437
   6818 H          26.4084   12.2547    6.3016 H     1705  UNL1705     0.1146
   6819 H          27.6277   13.0878    5.6170 H     1705  UNL1705     0.1146
   6820 H          27.6748   11.4614    5.6565 H     1705  UNL1705     0.1146
   6821 N          26.9864   12.0933    8.2844 N.3   1706  UNL1706    -0.3437
   6822 H          26.5876   12.7454    8.9581 H     1706  UNL1706     0.1146
   6823 H          27.5006   12.6622    7.6133 H     1706  UNL1706     0.1146
   6824 H          27.6877   11.5572    8.7936 H     1706  UNL1706     0.1146
   6825 N          26.9733   12.1157   10.9190 N.3   1707  UNL1707    -0.3437
   6826 H          26.6340   12.9210   11.4432 H     1707  UNL1707     0.1146
   6827 H          27.6655   12.4778   10.2647 H     1707  UNL1707     0.1146
   6828 H          27.4895   11.5437   11.5858 H     1707  UNL1707     0.1146
   6829 N          26.9628   12.1302   13.5618 N.3   1708  UNL1708    -0.3437
   6830 H          26.6696   12.7660   14.3022 H     1708  UNL1708     0.1146
   6831 H          27.5199   12.6885   12.9165 H     1708  UNL1708     0.1146
   6832 H          27.6099   11.4733   13.9955 H     1708  UNL1708     0.1146
   6833 N          26.9829   10.4606   18.2587 N.3   1709  UNL1709    -0.3437
   6834 H          26.6131    9.5174   18.3684 H     1709  UNL1709     0.1146
   6835 H          27.4358   10.6892   19.1424 H     1709  UNL1709     0.1146
   6836 H          27.7304   10.3908   17.5698 H     1709  UNL1709     0.1146
   6837 N          26.9931   12.4739   20.9081 N.3   1710  UNL1710    -0.3437
   6838 H          27.6441   12.7661   21.6355 H     1710  UNL1710     0.1146
   6839 H          27.5665   12.2009   20.1111 H     1710  UNL1710     0.1146
   6840 H          26.5585   11.6171   21.2479 H     1710  UNL1710     0.1146
   6841 N          26.9862   12.3543   23.8103 N.3   1711  UNL1711    -0.3437
   6842 H          26.5802   11.9241   22.9806 H     1711  UNL1711     0.1146
   6843 H          27.6241   11.6626   24.2017 H     1711  UNL1711     0.1146
   6844 H          27.5717   13.1171   23.4732 H     1711  UNL1711     0.1146
   6845 N          26.9863   12.3801   26.4370 N.3   1712  UNL1712    -0.3437
   6846 H          26.5816   11.8104   25.6954 H     1712  UNL1712     0.1146
   6847 H          27.6460   11.7770   26.9264 H     1712  UNL1712     0.1146
   6848 H          27.5484   13.0906   25.9703 H     1712  UNL1712     0.1146
   6849 N          26.9554   12.3140   28.7260 N.3   1713  UNL1713    -0.3437
   6850 H          26.7329   12.3578   29.7195 H     1713  UNL1713     0.1146
   6851 H          27.7031   12.9898   28.5755 H     1713  UNL1713     0.1146
   6852 H          27.3708   11.3965   28.5714 H     1713  UNL1713     0.1146
   6853 N          27.0134   12.4524   31.6828 N.3   1714  UNL1714    -0.3437
   6854 H          26.4979   11.7340   31.1762 H     1714  UNL1714     0.1146
   6855 H          27.6494   11.9556   32.3049 H     1714  UNL1714     0.1146
   6856 H          27.6015   12.9161   30.9918 H     1714  UNL1714     0.1146
   6857 N          27.0368   10.0372   34.2895 N.3   1715  UNL1715    -0.3437
   6858 H          26.4794   10.6306   33.6768 H     1715  UNL1715     0.1146
   6859 H          27.8403    9.7399   33.7378 H     1715  UNL1715     0.1146
   6860 H          27.4057   10.6504   35.0149 H     1715  UNL1715     0.1146
   6861 N          26.9977   15.0568   -0.3733 N.3   1716  UNL1716    -0.3437
   6862 H          26.5560   15.3474    0.4978 H     1716  UNL1716     0.1146
   6863 H          27.7233   15.7464   -0.5640 H     1716  UNL1716     0.1146
   6864 H          27.4852   14.1867   -0.1644 H     1716  UNL1716     0.1146
   6865 N          27.0742   14.8678    2.3257 N.3   1717  UNL1717    -0.3437
   6866 H          27.7574   14.5268    3.0004 H     1717  UNL1717     0.1146
   6867 H          26.3733   15.3727    2.8663 H     1717  UNL1717     0.1146
   6868 H          27.5574   15.5699    1.7671 H     1717  UNL1717     0.1146
   6869 N          26.9780   15.2272    5.2783 N.3   1718  UNL1718    -0.3437
   6870 H          26.6122   14.4948    4.6716 H     1718  UNL1718     0.1146
   6871 H          27.6487   14.7716    5.8956 H     1718  UNL1718     0.1146
   6872 H          27.5233   15.8435    4.6773 H     1718  UNL1718     0.1146
   6873 N          27.0205   15.2684    7.9282 N.3   1719  UNL1719    -0.3437
   6874 H          26.5032   14.7770    7.2007 H     1719  UNL1719     0.1146
   6875 H          27.4525   14.5459    8.5024 H     1719  UNL1719     0.1146
   6876 H          27.7861   15.7459    7.4547 H     1719  UNL1719     0.1146
   6877 N          26.9550   15.0954   10.2341 N.3   1720  UNL1720    -0.3437
   6878 H          26.7397   15.3766   11.1895 H     1720  UNL1720     0.1146
   6879 H          27.7116   15.7044    9.9258 H     1720  UNL1720     0.1146
   6880 H          27.3559   14.1608   10.3000 H     1720  UNL1720     0.1146
   6881 N          26.9901   15.2652   13.1734 N.3   1721  UNL1721    -0.3437
   6882 H          26.5673   14.5161   12.6271 H     1721  UNL1721     0.1146
   6883 H          27.5769   14.8081   13.8700 H     1721  UNL1721     0.1146
   6884 H          27.6279   15.7478   12.5420 H     1721  UNL1721     0.1146
   6885 N          27.0301   15.1059   15.9413 N.3   1722  UNL1722    -0.3437
   6886 H          27.6027   15.9311   15.7696 H     1722  UNL1722     0.1146
   6887 H          26.4560   14.9842   15.1082 H     1722  UNL1722     0.1146
   6888 H          27.6734   14.3159   15.9568 H     1722  UNL1722     0.1146
   6889 N          26.9546   12.9345   18.2385 N.3   1723  UNL1723    -0.3437
   6890 H          26.7473   13.5184   19.0474 H     1723  UNL1723     0.1146
   6891 H          27.3399   13.5598   17.5321 H     1723  UNL1723     0.1146
   6892 H          27.7204   12.3245   18.5212 H     1723  UNL1723     0.1146
   6893 N          26.9754   14.9224   20.8536 N.3   1724  UNL1724    -0.3437
   6894 H          27.5796   14.3770   21.4667 H     1724  UNL1724     0.1146
   6895 H          26.6178   15.6893   21.4214 H     1724  UNL1724     0.1146
   6896 H          27.5893   15.3485   20.1608 H     1724  UNL1724     0.1146
   6897 N          26.9913   15.2470   23.7620 N.3   1725  UNL1725    -0.3437
   6898 H          27.6160   15.8106   23.1872 H     1725  UNL1725     0.1146
   6899 H          26.5631   14.5706   23.1314 H     1725  UNL1725     0.1146
   6900 H          27.5918   14.7089   24.3851 H     1725  UNL1725     0.1146
   6901 N          27.0208   15.2559   26.4279 N.3   1726  UNL1726    -0.3437
   6902 H          26.4779   14.6514   25.8129 H     1726  UNL1726     0.1146
   6903 H          27.6247   14.6377   26.9678 H     1726  UNL1726     0.1146
   6904 H          27.6388   15.7922   25.8206 H     1726  UNL1726     0.1146
   6905 N          27.0051   15.2414   29.0663 N.3   1727  UNL1727    -0.3437
   6906 H          26.5207   14.6421   28.3996 H     1727  UNL1727     0.1146
   6907 H          27.6067   14.6259   29.6119 H     1727  UNL1727     0.1146
   6908 H          27.6297   15.8278   28.5147 H     1727  UNL1727     0.1146
   6909 N          27.0010   15.2595   31.6829 N.3   1728  UNL1728    -0.3437
   6910 H          27.5930   14.7185   32.3116 H     1728  UNL1728     0.1146
   6911 H          27.6350   15.7785   31.0772 H     1728  UNL1728     0.1146
   6912 H          26.5332   14.5806   31.0840 H     1728  UNL1728     0.1146
   6913 N          27.0667   13.3480   34.1299 N.3   1729  UNL1729    -0.3437
   6914 H          27.2230   13.1670   35.1204 H     1729  UNL1729     0.1146
   6915 H          27.9751   13.2477   33.6793 H     1729  UNL1729     0.1146
   6916 H          26.4974   12.5744   33.7894 H     1729  UNL1729     0.1146
   6917 N          27.2162   17.9089    0.1954 N.3   1730  UNL1730    -0.3437
   6918 H          27.9321   17.3392    0.6442 H     1730  UNL1730     0.1146
   6919 H          26.3218   17.5329    0.5070 H     1730  UNL1730     0.1146
   6920 H          27.2921   18.8354    0.6128 H     1730  UNL1730     0.1146
   6921 N          26.9992   17.6966    3.0428 N.3   1731  UNL1731    -0.3437
   6922 H          26.5580   18.4319    3.5934 H     1731  UNL1731     0.1146
   6923 H          27.4572   18.1661    2.2629 H     1731  UNL1731     0.1146
   6924 H          27.7478   17.3216    3.6236 H     1731  UNL1731     0.1146
   6925 N          27.3964   18.0637    5.7748 N.3   1732  UNL1732    -0.3437
   6926 H          26.9725   18.5637    6.5549 H     1732  UNL1732     0.1146
   6927 H          27.7661   17.1975    6.1639 H     1732  UNL1732     0.1146
   6928 H          26.6272   17.7915    5.1644 H     1732  UNL1732     0.1146
   6929 N          27.1287   17.7268    8.6407 N.3   1733  UNL1733    -0.3437
   6930 H          27.9996   18.2409    8.7655 H     1733  UNL1733     0.1146
   6931 H          26.4083   18.4295    8.4806 H     1733  UNL1733     0.1146
   6932 H          27.2256   17.2190    7.7625 H     1733  UNL1733     0.1146
   6933 N          26.9860   17.7345   11.0666 N.3   1734  UNL1734    -0.3437
   6934 H          26.6130   18.2773   11.8442 H     1734  UNL1734     0.1146
   6935 H          27.4014   18.4098   10.4264 H     1734  UNL1734     0.1146
   6936 H          27.7618   17.1946   11.4475 H     1734  UNL1734     0.1146
   6937 N          27.0164   17.6868   13.9362 N.3   1735  UNL1735    -0.3437
   6938 H          27.6243   18.0664   14.6606 H     1735  UNL1735     0.1146
   6939 H          26.4894   18.4778   13.5688 H     1735  UNL1735     0.1146
   6940 H          27.6322   17.3853   13.1824 H     1735  UNL1735     0.1146
   6941 N          26.9905   15.8723   18.1195 N.3   1736  UNL1736    -0.3437
   6942 H          26.6313   16.3946   18.9173 H     1736  UNL1736     0.1146
   6943 H          27.8254   16.3689   17.8116 H     1736  UNL1736     0.1146
   6944 H          27.3151   14.9805   18.4908 H     1736  UNL1736     0.1146
   6945 N          26.9779   17.7658   20.8239 N.3   1737  UNL1737    -0.3437
   6946 H          26.6163   18.2937   21.6169 H     1737  UNL1737     0.1146
   6947 H          27.4974   18.4332   20.2555 H     1737  UNL1737     0.1146
   6948 H          27.6706   17.1236   21.2063 H     1737  UNL1737     0.1146
   6949 N          27.4206   18.0421   23.7405 N.3   1738  UNL1738    -0.3437
   6950 H          27.1461   17.2012   24.2464 H     1738  UNL1738     0.1146
   6951 H          27.6079   17.7457   22.7837 H     1738  UNL1738     0.1146
   6952 H          26.5876   18.6272   23.6952 H     1738  UNL1738     0.1146
   6953 N          27.0204   18.0972   26.4027 N.3   1739  UNL1739    -0.3437
   6954 H          26.4788   17.4012   25.8923 H     1739  UNL1739     0.1146
   6955 H          27.6392   17.5738   27.0204 H     1739  UNL1739     0.1146
   6956 H          27.6238   18.5441   25.7138 H     1739  UNL1739     0.1146
   6957 N          27.0112   18.0927   29.0382 N.3   1740  UNL1740    -0.3437
   6958 H          26.5053   17.4247   28.4584 H     1740  UNL1740     0.1146
   6959 H          27.5767   17.5371   29.6785 H     1740  UNL1740     0.1146
   6960 H          27.6691   18.5618   28.4173 H     1740  UNL1740     0.1146
   6961 N          27.0173   18.1029   31.6725 N.3   1741  UNL1741    -0.3437
   6962 H          26.4939   17.4565   31.0838 H     1741  UNL1741     0.1146
   6963 H          27.5355   17.5249   32.3327 H     1741  UNL1741     0.1146
   6964 H          27.7155   18.5320   31.0668 H     1741  UNL1741     0.1146
   6965 N          27.4221   16.0776   35.2400 N.3   1742  UNL1742    -0.3437
   6966 H          27.5025   15.6127   34.3368 H     1742  UNL1742     0.1146
   6967 H          26.5416   16.5899   35.2149 H     1742  UNL1742     0.1146
   6968 H          27.2960   15.3360   35.9274 H     1742  UNL1742     0.1146
   6969 N          25.1331   20.7039   -0.4402 N.3   1743  UNL1743    -0.3437
   6970 H          24.4460   21.2659    0.0601 H     1743  UNL1743     0.1146
   6971 H          26.0386   21.1293   -0.2466 H     1743  UNL1743     0.1146
   6972 H          25.1445   19.7963    0.0229 H     1743  UNL1743     0.1146
   6973 N          26.9924   20.5653    2.3382 N.3   1744  UNL1744    -0.3437
   6974 H          26.5592   21.2433    2.9635 H     1744  UNL1744     0.1146
   6975 H          27.6161   21.0987    1.7341 H     1744  UNL1744     0.1146
   6976 H          27.5944   19.9880    2.9236 H     1744  UNL1744     0.1146
   6977 N          26.9912   20.5763    4.9699 N.3   1745  UNL1745    -0.3437
   6978 H          26.5642   21.2389    5.6157 H     1745  UNL1745     0.1146
   6979 H          27.6365   21.1184    4.3970 H     1745  UNL1745     0.1146
   6980 H          27.5704   19.9617    5.5402 H     1745  UNL1745     0.1146
   6981 N          26.9846   20.5884    7.6084 N.3   1746  UNL1746    -0.3437
   6982 H          26.5864   21.2322    8.2906 H     1746  UNL1746     0.1146
   6983 H          27.6325   21.1393    7.0471 H     1746  UNL1746     0.1146
   6984 H          27.5587   19.9355    8.1400 H     1746  UNL1746     0.1146
   6985 N          26.9949   20.5587   10.2646 N.3   1747  UNL1747    -0.3437
   6986 H          26.5513   21.2415   10.8773 H     1747  UNL1747     0.1146
   6987 H          27.6071   21.0908    9.6478 H     1747  UNL1747     0.1146
   6988 H          27.6089   20.0044   10.8597 H     1747  UNL1747     0.1146
   6989 N          26.9964   20.5757   12.8866 N.3   1748  UNL1748    -0.3437
   6990 H          26.5467   21.1922   13.5619 H     1748  UNL1748     0.1146
   6991 H          27.6174   21.1673   12.3362 H     1748  UNL1748     0.1146
   6992 H          27.6018   19.9602   13.4279 H     1748  UNL1748     0.1146
   6993 N          26.9893   20.5773   15.5346 N.3   1749  UNL1749    -0.3437
   6994 H          26.5694   21.1915   16.2308 H     1749  UNL1749     0.1146
   6995 H          27.5898   21.1699   14.9629 H     1749  UNL1749     0.1146
   6996 H          27.6137   19.9566   16.0476 H     1749  UNL1749     0.1146
   6997 N          27.0373   18.6163   18.1060 N.3   1750  UNL1750    -0.3437
   6998 H          26.4509   19.1156   18.7733 H     1750  UNL1750     0.1146
   6999 H          27.7614   19.2743   17.8211 H     1750  UNL1750     0.1146
   7000 H          27.5126   17.8892   18.6389 H     1750  UNL1750     0.1146
   7001 N          27.0640   20.4958   21.1148 N.3   1751  UNL1751    -0.3437
   7002 H          26.5038   21.3457   21.1612 H     1751  UNL1751     0.1146
   7003 H          27.2197   20.3157   20.1240 H     1751  UNL1751     0.1146
   7004 H          27.9747   20.7381   21.5026 H     1751  UNL1751     0.1146
   7005 N          27.0213   20.5946   23.4114 N.3   1752  UNL1752    -0.3437
   7006 H          26.4780   21.0025   24.1708 H     1752  UNL1752     0.1146
   7007 H          27.5890   21.3520   23.0338 H     1752  UNL1752     0.1146
   7008 H          27.6739   19.9462   23.8497 H     1752  UNL1752     0.1146
   7009 N          26.9920   20.5509   26.1230 N.3   1753  UNL1753    -0.3437
   7010 H          26.5605   21.2759   26.6944 H     1753  UNL1753     0.1146
   7011 H          27.6007   21.0364   25.4655 H     1753  UNL1753     0.1146
   7012 H          27.6090   20.0321   26.7463 H     1753  UNL1753     0.1146
   7013 N          26.9975   20.5531   28.7533 N.3   1754  UNL1754    -0.3437
   7014 H          26.5432   21.2522   29.3391 H     1754  UNL1754     0.1146
   7015 H          27.6144   21.0690   28.1274 H     1754  UNL1754     0.1146
   7016 H          27.6071   20.0210   29.3727 H     1754  UNL1754     0.1146
   7017 N          26.9994   20.5470   31.3991 N.3   1755  UNL1755    -0.3437
   7018 H          26.5377   21.2714   31.9473 H     1755  UNL1755     0.1146
   7019 H          27.6253   21.0346   30.7597 H     1755  UNL1755     0.1146
   7020 H          27.5998   20.0424   32.0496 H     1755  UNL1755     0.1146
   7021 N          27.0021   18.9486   34.1432 N.3   1756  UNL1756    -0.3437
   7022 H          26.5921   18.0473   33.9024 H     1756  UNL1756     0.1146
   7023 H          27.3289   18.8608   35.1044 H     1756  UNL1756     0.1146
   7024 H          27.8391   19.0387   33.5691 H     1756  UNL1756     0.1146
   7025 N          26.9709   23.4094   -0.2963 N.3   1757  UNL1757    -0.3437
   7026 H          26.6370   24.1191    0.3542 H     1757  UNL1757     0.1146
   7027 H          27.6237   23.8837   -0.9188 H     1757  UNL1757     0.1146
   7028 H          27.5306   22.7622    0.2571 H     1757  UNL1757     0.1146
   7029 N          26.9748   23.6327    2.6711 N.3   1758  UNL1758    -0.3437
   7030 H          26.6222   23.1468    1.8478 H     1758  UNL1758     0.1146
   7031 H          27.6258   22.9896    3.1195 H     1758  UNL1758     0.1146
   7032 H          27.5395   24.4053    2.3210 H     1758  UNL1758     0.1146
   7033 N          27.0106   23.4063    4.9406 N.3   1759  UNL1759    -0.3437
   7034 H          26.5054   23.9447    5.6430 H     1759  UNL1759     0.1146
   7035 H          27.6403   24.0634    4.4824 H     1759  UNL1759     0.1146
   7036 H          27.6060   22.7601    5.4567 H     1759  UNL1759     0.1146
   7037 N          26.9870   23.3981    7.6141 N.3   1760  UNL1760    -0.3437
   7038 H          26.5771   24.0511    8.2803 H     1760  UNL1760     0.1146
   7039 H          27.6162   23.9490    7.0317 H     1760  UNL1760     0.1146
   7040 H          27.5818   22.7763    8.1599 H     1760  UNL1760     0.1146
   7041 N          26.9865   23.4043   10.2500 N.3   1761  UNL1761    -0.3437
   7042 H          26.5802   24.0599   10.9159 H     1761  UNL1761     0.1146
   7043 H          27.6378   23.9464    9.6840 H     1761  UNL1761     0.1146
   7044 H          27.5577   22.7638   10.7994 H     1761  UNL1761     0.1146
   7045 N          27.0038   23.3837   12.8891 N.3   1762  UNL1762    -0.3437
   7046 H          26.5246   24.0303   13.5141 H     1762  UNL1762     0.1146
   7047 H          27.6350   23.9525   12.3265 H     1762  UNL1762     0.1146
   7048 H          27.5988   22.8079   13.4830 H     1762  UNL1762     0.1146
   7049 N          26.9525   23.4486   15.5467 N.3   1763  UNL1763    -0.3437
   7050 H          26.7126   23.9806   16.3820 H     1763  UNL1763     0.1146
   7051 H          27.5455   24.0586   14.9858 H     1763  UNL1763     0.1146
   7052 H          27.5516   22.6867   15.8614 H     1763  UNL1763     0.1146
   7053 N          26.9638   21.7200   18.2653 N.3   1764  UNL1764    -0.3437
   7054 H          26.7569   20.7339   18.1133 H     1764  UNL1764     0.1146
   7055 H          27.2415   21.8014   19.2424 H     1764  UNL1764     0.1146
   7056 H          27.8000   21.9191   17.7182 H     1764  UNL1764     0.1146
   7057 N          26.9905   23.4007   20.8115 N.3   1765  UNL1765    -0.3437
   7058 H          26.5684   24.0734   21.4499 H     1765  UNL1765     0.1146
   7059 H          27.6579   23.9273   20.2496 H     1765  UNL1765     0.1146
   7060 H          27.5454   22.7730   21.3915 H     1765  UNL1765     0.1146
   7061 N          26.9964   23.3973   23.4483 N.3   1766  UNL1766    -0.3437
   7062 H          26.5474   24.0326   24.1064 H     1766  UNL1766     0.1146
   7063 H          27.6400   23.9677   22.9017 H     1766  UNL1766     0.1146
   7064 H          27.5783   22.7768   24.0094 H     1766  UNL1766     0.1146
   7065 N          26.9898   23.3987   26.0958 N.3   1767  UNL1767    -0.3437
   7066 H          26.5678   24.0303   26.7751 H     1767  UNL1767     0.1146
   7067 H          27.6128   23.9719   25.5285 H     1767  UNL1767     0.1146
   7068 H          27.5918   22.7735   26.6297 H     1767  UNL1767     0.1146
   7069 N          26.9956   23.3930   28.7347 N.3   1768  UNL1768    -0.3437
   7070 H          26.5502   24.0503   29.3735 H     1768  UNL1768     0.1146
   7071 H          27.6411   23.9436   28.1702 H     1768  UNL1768     0.1146
   7072 H          27.5754   22.7875   29.3140 H     1768  UNL1768     0.1146
   7073 N          26.9478   23.4561   31.3948 N.3   1769  UNL1769    -0.3437
   7074 H          26.7363   23.9234   32.2753 H     1769  UNL1769     0.1146
   7075 H          27.5106   24.1130   30.8562 H     1769  UNL1769     0.1146
   7076 H          27.5675   22.6820   31.6295 H     1769  UNL1769     0.1146
   7077 N          27.3466   21.3675   35.0009 N.3   1770  UNL1770    -0.3437
   7078 H          26.7514   22.0191   34.4914 H     1770  UNL1770     0.1146
   7079 H          27.9364   21.9389   35.6042 H     1770  UNL1770     0.1146
   7080 H          26.7277   20.8490   35.6226 H     1770  UNL1770     0.1146
   7081 N          26.9918   26.2288   -0.3235 N.3   1771  UNL1771    -0.3437
   7082 H          26.5665   26.8853    0.3295 H     1771  UNL1771     0.1146
   7083 H          27.6763   26.7649   -0.8550 H     1771  UNL1771     0.1146
   7084 H          27.5277   25.5745    0.2450 H     1771  UNL1771     0.1146
   7085 N          26.9681   26.4458    2.6662 N.3   1772  UNL1772    -0.3437
   7086 H          27.6467   25.8509    3.1396 H     1772  UNL1772     0.1146
   7087 H          27.4953   27.2375    2.3007 H     1772  UNL1772     0.1146
   7088 H          26.6522   25.9193    1.8529 H     1772  UNL1772     0.1146
   7089 N          27.0048   26.2499    4.9307 N.3   1773  UNL1773    -0.3437
   7090 H          26.5214   26.6895    5.7127 H     1773  UNL1773     0.1146
   7091 H          27.6155   26.9658    4.5397 H     1773  UNL1773     0.1146
   7092 H          27.6205   25.5484    5.3397 H     1773  UNL1773     0.1146
   7093 N          26.9903   26.5055    7.9360 N.3   1774  UNL1774    -0.3437
   7094 H          26.5702   25.8246    7.3050 H     1774  UNL1774     0.1146
   7095 H          27.6663   25.9890    8.4970 H     1774  UNL1774     0.1146
   7096 H          27.5354   27.1344    7.3481 H     1774  UNL1774     0.1146
   7097 N          26.9926   26.4439   10.6166 N.3   1775  UNL1775    -0.3437
   7098 H          26.5637   26.0002    9.8057 H     1775  UNL1775     0.1146
   7099 H          27.6773   25.7779   10.9719 H     1775  UNL1775     0.1146
   7100 H          27.5286   27.2316   10.2551 H     1775  UNL1775     0.1146
   7101 N          26.9621   26.2604   12.8963 N.3   1776  UNL1776    -0.3437
   7102 H          26.6717   26.8527   13.6730 H     1776  UNL1776     0.1146
   7103 H          27.6020   26.8234   12.3377 H     1776  UNL1776     0.1146
   7104 H          27.5264   25.5171   13.3056 H     1776  UNL1776     0.1146
   7105 N          26.9799   26.4451   15.8846 N.3   1777  UNL1777    -0.3437
   7106 H          26.6037   26.0011   15.0481 H     1777  UNL1777     0.1146
   7107 H          27.6369   25.7774   16.2857 H     1777  UNL1777     0.1146
   7108 H          27.5416   27.2299   15.5576 H     1777  UNL1777     0.1146
   7109 N          27.0159   26.2955   18.1062 N.3   1778  UNL1778    -0.3437
   7110 H          26.5019   26.6971   18.8890 H     1778  UNL1778     0.1146
   7111 H          27.7355   26.9753   17.8643 H     1778  UNL1778     0.1146
   7112 H          27.5089   25.4857   18.4797 H     1778  UNL1778     0.1146
   7113 N          27.0077   26.2061   20.8048 N.3   1779  UNL1779    -0.3437
   7114 H          26.5141   26.8443   21.4273 H     1779  UNL1779     0.1146
   7115 H          27.6527   26.7821   20.2658 H     1779  UNL1779     0.1146
   7116 H          27.5877   25.6211   21.4047 H     1779  UNL1779     0.1146
   7117 N          26.9848   26.2281   23.4529 N.3   1780  UNL1780    -0.3437
   7118 H          26.5900   26.9161   24.0925 H     1780  UNL1780     0.1146
   7119 H          27.6700   26.7294   22.8891 H     1780  UNL1780     0.1146
   7120 H          27.5174   25.5799   24.0313 H     1780  UNL1780     0.1146
   7121 N          26.9889   26.2135   26.1016 N.3   1781  UNL1781    -0.3437
   7122 H          26.5708   26.8734   26.7559 H     1781  UNL1781     0.1146
   7123 H          27.6150   26.7607   25.5125 H     1781  UNL1781     0.1146
   7124 H          27.5875   25.6060   26.6592 H     1781  UNL1781     0.1146
   7125 N          26.9903   26.2272   28.7286 N.3   1782  UNL1782    -0.3437
   7126 H          26.5672   26.8474   29.4176 H     1782  UNL1782     0.1146
   7127 H          27.6355   26.8038   28.1904 H     1782  UNL1782     0.1146
   7128 H          27.5692   25.5751   29.2558 H     1782  UNL1782     0.1146
   7129 N          26.9679   26.2285   31.3990 N.3   1783  UNL1783    -0.3437
   7130 H          26.6469   26.9133   32.0819 H     1783  UNL1783     0.1146
   7131 H          27.5847   26.7331   30.7638 H     1783  UNL1783     0.1146
   7132 H          27.5628   25.5788   31.9111 H     1783  UNL1783     0.1146
   7133 N          27.0223   24.5941   35.2562 N.3   1784  UNL1784    -0.3437
   7134 H          26.6356   23.7041   35.5672 H     1784  UNL1784     0.1146
   7135 H          27.9617   24.6444   35.6479 H     1784  UNL1784     0.1146
   7136 H          27.1427   24.5109   34.2477 H     1784  UNL1784     0.1146
   7137 N          26.9911   30.0542   -0.3270 N.3   1785  UNL1785    -0.3437
   7138 H          26.5726   30.7192    0.3219 H     1785  UNL1785     0.1146
   7139 H          27.6970   30.5746   -0.8460 H     1785  UNL1785     0.1146
   7140 H          27.5015   29.3848    0.2472 H     1785  UNL1785     0.1146
   7141 N          26.9933   30.0552    2.3107 N.3   1786  UNL1786    -0.3437
   7142 H          26.5620   30.6849    2.9858 H     1786  UNL1786     0.1146
   7143 H          27.6809   30.6128    1.8060 H     1786  UNL1786     0.1146
   7144 H          27.5259   29.3798    2.8570 H     1786  UNL1786     0.1146
   7145 N          26.9388   30.1288    4.9857 N.3   1787  UNL1787    -0.3437
   7146 H          26.7849   30.5737    5.8894 H     1787  UNL1787     0.1146
   7147 H          27.5642   30.7471    4.4711 H     1787  UNL1787     0.1146
   7148 H          27.4744   29.2831    5.1766 H     1787  UNL1787     0.1146
   7149 N          26.8981   29.1733    7.7295 N.3   1788  UNL1788    -0.3437
   7150 H          27.2407   30.1187    7.8944 H     1788  UNL1788     0.1146
   7151 H          27.4234   28.8195    6.9311 H     1788  UNL1788     0.1146
   7152 H          27.2000   28.6213    8.5310 H     1788  UNL1788     0.1146
   7153 N          27.0130   30.1014   10.1905 N.3   1789  UNL1789    -0.3437
   7154 H          26.4997   30.4602   10.9944 H     1789  UNL1789     0.1146
   7155 H          27.6654   30.8371    9.9227 H     1789  UNL1789     0.1146
   7156 H          27.5841   29.3340   10.5416 H     1789  UNL1789     0.1146
   7157 N          27.0130   30.1014   12.8314 N.3   1790  UNL1790    -0.3437
   7158 H          26.4997   30.4602   13.6352 H     1790  UNL1790     0.1146
   7159 H          27.6654   30.8371   12.5636 H     1790  UNL1790     0.1146
   7160 H          27.5841   29.3340   13.1825 H     1790  UNL1790     0.1146
   7161 N          27.0130   30.1014   15.4722 N.3   1791  UNL1791    -0.3437
   7162 H          26.4997   30.4602   16.2761 H     1791  UNL1791     0.1146
   7163 H          27.6654   30.8371   15.2044 H     1791  UNL1791     0.1146
   7164 H          27.5841   29.3340   15.8233 H     1791  UNL1791     0.1146
   7165 N          26.9911   30.0547   18.1584 N.3   1792  UNL1792    -0.3437
   7166 H          26.5726   30.7179   18.8091 H     1792  UNL1792     0.1146
   7167 H          27.6971   30.5765   17.6409 H     1792  UNL1792     0.1146
   7168 H          27.5014   29.3836   18.7308 H     1792  UNL1792     0.1146
   7169 N          27.0533   30.0894   20.7312 N.3   1793  UNL1793    -0.3437
   7170 H          26.4045   30.4024   21.4520 H     1793  UNL1793     0.1146
   7171 H          27.6783   30.8748   20.5555 H     1793  UNL1793     0.1146
   7172 H          27.6261   29.3661   21.1638 H     1793  UNL1793     0.1146
   7173 N          27.2406   30.3572   23.3828 N.3   1794  UNL1794    -0.3437
   7174 H          26.4146   30.6348   23.9110 H     1794  UNL1794     0.1146
   7175 H          28.0127   30.3582   24.0479 H     1794  UNL1794     0.1146
   7176 H          27.0942   29.3825   23.1241 H     1794  UNL1794     0.1146
   7177 N          27.0130   30.1014   26.0355 N.3   1795  UNL1795    -0.3437
   7178 H          26.4997   30.4602   26.8394 H     1795  UNL1795     0.1146
   7179 H          27.6654   30.8371   25.7677 H     1795  UNL1795     0.1146
   7180 H          27.5841   29.3340   26.3866 H     1795  UNL1795     0.1146
   7181 N          27.0127   30.1012   28.6767 N.3   1796  UNL1796    -0.3437
   7182 H          26.5010   30.4674   29.4782 H     1796  UNL1796     0.1146
   7183 H          27.6694   30.8316   28.4052 H     1796  UNL1796     0.1146
   7184 H          27.5791   29.3325   29.0324 H     1796  UNL1796     0.1146
   7185 N          26.9145   30.1806   31.4333 N.3   1797  UNL1797    -0.3437
   7186 H          26.9577   30.4449   32.4165 H     1797  UNL1797     0.1146
   7187 H          27.5194   30.8354   30.9396 H     1797  UNL1797     0.1146
   7188 H          27.3705   29.2718   31.3664 H     1797  UNL1797     0.1146
   7189 N          26.8962   29.1799   34.1525 N.3   1798  UNL1798    -0.3437
   7190 H          27.2196   28.7026   34.9927 H     1798  UNL1798     0.1146
   7191 H          27.2770   30.1238   34.2016 H     1798  UNL1798     0.1146
   7192 H          27.3694   28.7264   33.3722 H     1798  UNL1798     0.1146
   7193 N          29.5112    0.8976    0.5343 N.3   1799  UNL1799    -0.3437
   7194 H          30.0964    0.1284    0.2113 H     1799  UNL1799     0.1146
   7195 H          30.1461    1.5795    0.9470 H     1799  UNL1799     0.1146
   7196 H          29.1352    1.3361   -0.3052 H     1799  UNL1799     0.1146
   7197 N          29.5148    1.0503    2.9304 N.3   1800  UNL1800    -0.3437
   7198 H          29.9729    1.8794    3.3059 H     1800  UNL1800     0.1146
   7199 H          30.2586    0.4654    2.5522 H     1800  UNL1800     0.1146
   7200 H          29.1428    0.5466    3.7343 H     1800  UNL1800     0.1146
   7201 N          29.5000    0.9053    5.9491 N.3   1801  UNL1801    -0.3437
   7202 H          29.8473    0.1345    5.3803 H     1801  UNL1801     0.1146
   7203 H          30.3055    1.2613    6.4617 H     1801  UNL1801     0.1146
   7204 H          29.2362    1.6406    5.2948 H     1801  UNL1801     0.1146
   7205 N          29.6142    0.9133    8.2898 N.3   1802  UNL1802    -0.3437
   7206 H          28.8981    1.2623    8.9253 H     1802  UNL1802     0.1146
   7207 H          30.3256    1.6413    8.2414 H     1802  UNL1802     0.1146
   7208 H          30.0511    0.1248    8.7648 H     1802  UNL1802     0.1146
   7209 N          29.5177    0.8432   10.8940 N.3   1803  UNL1803    -0.3437
   7210 H          29.1122    1.4822   11.5765 H     1803  UNL1803     0.1146
   7211 H          30.1431    1.4061   10.3193 H     1803  UNL1803     0.1146
   7212 H          30.1160    0.2101   11.4228 H     1803  UNL1803     0.1146
   7213 N          29.5024    0.8244   13.5794 N.3   1804  UNL1804    -0.3437
   7214 H          29.1679    1.6325   14.1022 H     1804  UNL1804     0.1146
   7215 H          30.1340    1.1913   12.8689 H     1804  UNL1804     0.1146
   7216 H          30.0847    0.2934   14.2254 H     1804  UNL1804     0.1146
   7217 N          29.6964    0.8544   16.0711 N.3   1805  UNL1805    -0.3437
   7218 H          30.0714    0.2318   16.7852 H     1805  UNL1805     0.1146
   7219 H          28.8055    1.1921   16.4326 H     1805  UNL1805     0.1146
   7220 H          30.3157    1.6633   16.0504 H     1805  UNL1805     0.1146
   7221 N          29.6811    1.0198   18.6849 N.3   1806  UNL1806    -0.3437
   7222 H          29.8114    1.9054   19.1718 H     1806  UNL1806     0.1146
   7223 H          30.5015    0.4560   18.9030 H     1806  UNL1806     0.1146
   7224 H          28.8951    0.5605   19.1428 H     1806  UNL1806     0.1146
   7225 N          29.8940    1.1458   21.4371 N.3   1807  UNL1807    -0.3437
   7226 H          29.2008    1.7096   21.9269 H     1807  UNL1807     0.1146
   7227 H          30.4235    0.6610   22.1603 H     1807  UNL1807     0.1146
   7228 H          29.3708    0.4253   20.9416 H     1807  UNL1807     0.1146
   7229 N          29.5375    0.8753   24.4601 N.3   1808  UNL1808    -0.3437
   7230 H          29.2200    0.7091   23.5062 H     1808  UNL1808     0.1146
   7231 H          30.4722    0.4737   24.5190 H     1808  UNL1808     0.1146
   7232 H          29.6593    1.8835   24.5439 H     1808  UNL1808     0.1146
   7233 N          29.5800    0.8839   27.1365 N.3   1809  UNL1809    -0.3437
   7234 H          29.7203    0.1668   26.4263 H     1809  UNL1809     0.1146
   7235 H          30.5064    1.2475   27.3555 H     1809  UNL1809     0.1146
   7236 H          29.0823    1.6435   26.6741 H     1809  UNL1809     0.1146
   7237 N          27.8436    1.0620   31.6467 N.3   1810  UNL1810    -0.3437
   7238 H          27.9080    0.3769   30.8952 H     1810  UNL1810     0.1146
   7239 H          27.3303    1.8537   31.2618 H     1810  UNL1810     0.1146
   7240 H          27.2351    0.6490   32.3520 H     1810  UNL1810     0.1146
   7241 N          29.8793    1.1212   35.3901 N.3   1811  UNL1811    -0.3437
   7242 H          29.0080    0.7268   35.7417 H     1811  UNL1811     0.1146
   7243 H          30.3838    0.3480   34.9587 H     1811  UNL1811     0.1146
   7244 H          29.6179    1.7456   34.6285 H     1811  UNL1811     0.1146
   7245 N          29.5449    3.7476   -0.3803 N.3   1812  UNL1812    -0.3437
   7246 H          29.0295    3.9711    0.4698 H     1812  UNL1812     0.1146
   7247 H          30.1640    4.5390   -0.5498 H     1812  UNL1812     0.1146
   7248 H          30.1505    2.9630   -0.1436 H     1812  UNL1812     0.1146
   7249 N          29.5279    3.9925    2.6103 N.3   1813  UNL1813    -0.3437
   7250 H          29.0793    3.2107    2.1350 H     1813  UNL1813     0.1146
   7251 H          30.1561    3.5797    3.2984 H     1813  UNL1813     0.1146
   7252 H          30.1258    4.4378    1.9157 H     1813  UNL1813     0.1146
   7253 N          29.5658    3.9237    5.3517 N.3   1814  UNL1814    -0.3437
   7254 H          28.9771    3.5335    4.6171 H     1814  UNL1814     0.1146
   7255 H          30.1706    3.1639    5.6602 H     1814  UNL1814     0.1146
   7256 H          30.1755    4.5996    4.8937 H     1814  UNL1814     0.1146
   7257 N          29.5226    3.8287    7.5548 N.3   1815  UNL1815    -0.3437
   7258 H          29.0959    3.7187    8.4736 H     1815  UNL1815     0.1146
   7259 H          30.1288    4.6450    7.6225 H     1815  UNL1815     0.1146
   7260 H          30.1417    3.0283    7.4350 H     1815  UNL1815     0.1146
   7261 N          29.4909    3.9618   10.5089 N.3   1816  UNL1816    -0.3437
   7262 H          29.2185    3.0731   10.0912 H     1816  UNL1816     0.1146
   7263 H          30.1497    3.7327   11.2518 H     1816  UNL1816     0.1146
   7264 H          30.0299    4.4531    9.7973 H     1816  UNL1816     0.1146
   7265 N          29.4658    3.8245   13.1989 N.3   1817  UNL1817    -0.3437
   7266 H          30.2713    3.7856   13.8219 H     1817  UNL1817     0.1146
   7267 H          29.6279    4.6173   12.5795 H     1817  UNL1817     0.1146
   7268 H          29.5240    2.9934   12.6123 H     1817  UNL1817     0.1146
   7269 N          29.5402    3.9176   15.8980 N.3   1818  UNL1818    -0.3437
   7270 H          29.0499    3.3748   15.1886 H     1818  UNL1818     0.1146
   7271 H          30.2402    3.2929   16.2957 H     1818  UNL1818     0.1146
   7272 H          30.0587    4.6355   15.3937 H     1818  UNL1818     0.1146
   7273 N          29.6367    3.9016   18.0688 N.3   1819  UNL1819    -0.3437
   7274 H          28.8525    3.6333   18.6616 H     1819  UNL1819     0.1146
   7275 H          30.1582    4.6027   18.5931 H     1819  UNL1819     0.1146
   7276 H          30.2415    3.0832   18.0157 H     1819  UNL1819     0.1146
   7277 N          29.5545    3.9025   20.7526 N.3   1820  UNL1820    -0.3437
   7278 H          29.0049    3.5288   21.5251 H     1820  UNL1820     0.1146
   7279 H          30.1409    4.6335   21.1528 H     1820  UNL1820     0.1146
   7280 H          30.1887    3.1559   20.4720 H     1820  UNL1820     0.1146
   7281 N          29.5017    3.9319   23.7671 N.3   1821  UNL1821    -0.3437
   7282 H          29.2004    3.1120   23.2424 H     1821  UNL1821     0.1146
   7283 H          30.2606    3.6164   24.3696 H     1821  UNL1821     0.1146
   7284 H          29.9262    4.5605   23.0867 H     1821  UNL1821     0.1146
   7285 N          29.5366    3.9151   26.4594 N.3   1822  UNL1822    -0.3437
   7286 H          29.0547    3.4276   25.7054 H     1822  UNL1822     0.1146
   7287 H          30.1948    3.2437   26.8524 H     1822  UNL1822     0.1146
   7288 H          30.1030    4.6344   26.0119 H     1822  UNL1822     0.1146
   7289 N          29.4978    3.7414   28.7166 N.3   1823  UNL1823    -0.3437
   7290 H          29.1921    4.1911   29.5784 H     1823  UNL1823     0.1146
   7291 H          30.1777    4.3733   28.2960 H     1823  UNL1823     0.1146
   7292 H          30.0214    2.9149   29.0015 H     1823  UNL1823     0.1146
   7293 N          29.4908    3.9760   31.6070 N.3   1824  UNL1824    -0.3437
   7294 H          29.2226    3.1301   31.1061 H     1824  UNL1824     0.1146
   7295 H          30.0060    3.6642   32.4291 H     1824  UNL1824     0.1146
   7296 H          30.1697    4.4505   31.0135 H     1824  UNL1824     0.1146
   7297 N          29.7318    4.0289   35.3728 N.3   1825  UNL1825    -0.3437
   7298 H          29.7326    4.3442   34.4038 H     1825  UNL1825     0.1146
   7299 H          28.8990    3.4514   35.4796 H     1825  UNL1825     0.1146
   7300 H          30.5256    3.3963   35.4629 H     1825  UNL1825     0.1146
   7301 N          29.8555    6.4931    0.2613 N.3   1826  UNL1826    -0.3437
   7302 H          29.0496    7.0498   -0.0200 H     1826  UNL1826     0.1146
   7303 H          30.4733    7.1279    0.7651 H     1826  UNL1826     0.1146
   7304 H          29.5106    5.8291    0.9530 H     1826  UNL1826     0.1146
   7305 N          29.5789    6.4602    2.9315 N.3   1827  UNL1827    -0.3437
   7306 H          28.9739    6.7817    3.6858 H     1827  UNL1827     0.1146
   7307 H          29.9917    7.2989    2.5257 H     1827  UNL1827     0.1146
   7308 H          30.3446    5.9591    3.3798 H     1827  UNL1827     0.1146
   7309 N          29.5896    6.4896    5.6877 N.3   1828  UNL1828    -0.3437
   7310 H          28.9293    6.9493    6.3129 H     1828  UNL1828     0.1146
   7311 H          30.2427    7.2123    5.3882 H     1828  UNL1828     0.1146
   7312 H          30.1275    5.8486    6.2693 H     1828  UNL1828     0.1146
   7313 N          29.5375    6.4429    8.2706 N.3   1829  UNL1829    -0.3437
   7314 H          29.0515    7.1821    8.7763 H     1829  UNL1829     0.1146
   7315 H          30.1873    6.9130    7.6419 H     1829  UNL1829     0.1146
   7316 H          30.1127    5.9619    8.9606 H     1829  UNL1829     0.1146
   7317 N          29.5465    6.4635   10.8787 N.3   1830  UNL1830    -0.3437
   7318 H          29.0276    7.0018   11.5710 H     1830  UNL1830     0.1146
   7319 H          30.1052    7.1389   10.3589 H     1830  UNL1830     0.1146
   7320 H          30.2097    5.8956   11.4041 H     1830  UNL1830     0.1146
   7321 N          29.5347    6.4467   13.5511 N.3   1831  UNL1831    -0.3437
   7322 H          29.0586    7.1393   14.1274 H     1831  UNL1831     0.1146
   7323 H          30.1368    6.9729   12.9195 H     1831  UNL1831     0.1146
   7324 H          30.1589    5.9410   14.1779 H     1831  UNL1831     0.1146
   7325 N          29.8745    6.4963   16.1165 N.3   1832  UNL1832    -0.3437
   7326 H          29.4302    5.8219   16.7379 H     1832  UNL1832     0.1146
   7327 H          29.1266    7.0978   15.7741 H     1832  UNL1832     0.1146
   7328 H          30.4577    7.0839   16.7106 H     1832  UNL1832     0.1146
   7329 N          29.8675    6.7362   18.7435 N.3   1833  UNL1833    -0.3437
   7330 H          29.1305    6.0867   18.4727 H     1833  UNL1833     0.1146
   7331 H          29.4155    7.4549   19.3070 H     1833  UNL1833     0.1146
   7332 H          30.4755    6.2219   19.3793 H     1833  UNL1833     0.1146
   7333 N          29.5177    6.7897   21.6090 N.3   1834  UNL1834    -0.3437
   7334 H          29.1133    6.0344   21.0574 H     1834  UNL1834     0.1146
   7335 H          30.1627    6.3467   22.2617 H     1834  UNL1834     0.1146
   7336 H          30.0954    7.3290   20.9658 H     1834  UNL1834     0.1146
   7337 N          29.6364    6.7839   24.4912 N.3   1835  UNL1835    -0.3437
   7338 H          29.4471    5.7886   24.6002 H     1835  UNL1835     0.1146
   7339 H          30.6357    6.8614   24.3074 H     1835  UNL1835     0.1146
   7340 H          29.1698    7.0660   23.6303 H     1835  UNL1835     0.1146
   7341 N          29.5192    6.8088   27.0093 N.3   1836  UNL1836    -0.3437
   7342 H          29.1120    6.0755   26.4307 H     1836  UNL1836     0.1146
   7343 H          30.0562    6.3310   27.7316 H     1836  UNL1836     0.1146
   7344 H          30.2016    7.2846   26.4208 H     1836  UNL1836     0.1146
   7345 N          27.5507    6.8242   31.6741 N.3   1837  UNL1837    -0.3437
   7346 H          28.0473    6.2222   32.3295 H     1837  UNL1837     0.1146
   7347 H          28.2663    7.2527   31.0887 H     1837  UNL1837     0.1146
   7348 H          27.0246    6.2008   31.0634 H     1837  UNL1837     0.1146
   7349 N          29.6406    6.9087   35.1941 N.3   1838  UNL1838    -0.3437
   7350 H          28.9596    6.2808   35.6187 H     1838  UNL1838     0.1146
   7351 H          30.5237    6.7282   35.6694 H     1838  UNL1838     0.1146
   7352 H          29.7650    6.5822   34.2368 H     1838  UNL1838     0.1146
   7353 N          29.5543    9.4619   -0.3936 N.3   1839  UNL1839    -0.3437
   7354 H          29.0693    9.0302    0.3918 H     1839  UNL1839     0.1146
   7355 H          29.8653   10.3747   -0.0643 H     1839  UNL1839     0.1146
   7356 H          30.4001    8.9122   -0.5378 H     1839  UNL1839     0.1146
   7357 N          29.9505    9.2995    2.3709 N.3   1840  UNL1840    -0.3437
   7358 H          30.2379    9.9708    3.0815 H     1840  UNL1840     0.1146
   7359 H          29.2819    8.6788    2.8248 H     1840  UNL1840     0.1146
   7360 H          29.4187    9.8299    1.6822 H     1840  UNL1840     0.1146
   7361 N          29.8964    9.3046    4.9373 N.3   1841  UNL1841    -0.3437
   7362 H          29.3076   10.0106    4.4977 H     1841  UNL1841     0.1146
   7363 H          30.4230    9.7898    5.6624 H     1841  UNL1841     0.1146
   7364 H          29.2620    8.6740    5.4254 H     1841  UNL1841     0.1146
   7365 N          29.9423    9.3042    7.9101 N.3   1842  UNL1842    -0.3437
   7366 H          29.2274    9.6457    8.5510 H     1842  UNL1842     0.1146
   7367 H          29.4570    8.7113    7.2382 H     1842  UNL1842     0.1146
   7368 H          30.2623   10.1179    7.3868 H     1842  UNL1842     0.1146
   7369 N          29.5315    9.6554   10.4936 N.3   1843  UNL1843    -0.3437
   7370 H          29.0745    8.8594   10.0510 H     1843  UNL1843     0.1146
   7371 H          30.0580    9.2759   11.2792 H     1843  UNL1843     0.1146
   7372 H          30.2251    9.9883    9.8254 H     1843  UNL1843     0.1146
   7373 N          29.5575    9.5524   13.2737 N.3   1844  UNL1844    -0.3437
   7374 H          28.9989    9.1185   12.5402 H     1844  UNL1844     0.1146
   7375 H          30.2154    8.8390   13.5849 H     1844  UNL1844     0.1146
   7376 H          30.1172   10.2690   12.8138 H     1844  UNL1844     0.1146
   7377 N          29.5334    9.3112   15.5099 N.3   1845  UNL1845    -0.3437
   7378 H          29.0621    9.8404   16.2421 H     1845  UNL1845     0.1146
   7379 H          30.1457    9.9729   15.0347 H     1845  UNL1845     0.1146
   7380 H          30.1478    8.6545   15.9892 H     1845  UNL1845     0.1146
   7381 N          29.6063    9.2660   18.1299 N.3   1846  UNL1846    -0.3437
   7382 H          28.9090    9.6230   18.7816 H     1846  UNL1846     0.1146
   7383 H          30.0598   10.0849   17.7273 H     1846  UNL1846     0.1146
   7384 H          30.3138    8.8051   18.7003 H     1846  UNL1846     0.1146
   7385 N          29.5114    9.2641   20.8743 N.3   1847  UNL1847    -0.3437
   7386 H          29.1362   10.1266   21.2662 H     1847  UNL1847     0.1146
   7387 H          30.1694    9.5477   20.1497 H     1847  UNL1847     0.1146
   7388 H          30.0720    8.8407   21.6124 H     1847  UNL1847     0.1146
   7389 N          29.9317    9.3069   23.4599 N.3   1848  UNL1848    -0.3437
   7390 H          29.2344    9.7608   22.8715 H     1848  UNL1848     0.1146
   7391 H          30.3073   10.0364   24.0641 H     1848  UNL1848     0.1146
   7392 H          29.4156    8.6749   24.0703 H     1848  UNL1848     0.1146
   7393 N          29.5514    9.6219   26.4210 N.3   1849  UNL1849    -0.3437
   7394 H          29.0277    9.1223   25.7038 H     1849  UNL1849     0.1146
   7395 H          30.0222    8.9072   26.9741 H     1849  UNL1849     0.1146
   7396 H          30.2877   10.1275   25.9303 H     1849  UNL1849     0.1146
   7397 N          29.5024    9.4025   28.7051 N.3   1850  UNL1850    -0.3437
   7398 H          29.1782    9.7750   29.5965 H     1850  UNL1850     0.1146
   7399 H          30.2045   10.0582   28.3653 H     1850  UNL1850     0.1146
   7400 H          30.0040    8.5433   28.9255 H     1850  UNL1850     0.1146
   7401 N          29.4586    9.5782   31.5471 N.3   1851  UNL1851    -0.3437
   7402 H          29.4603    8.7447   30.9610 H     1851  UNL1851     0.1146
   7403 H          29.7760    9.2754   32.4669 H     1851  UNL1851     0.1146
   7404 H          30.1942   10.1807   31.1806 H     1851  UNL1851     0.1146
   7405 N          29.7223    9.6895   35.3456 N.3   1852  UNL1852    -0.3437
   7406 H          28.8949    9.1133   35.4936 H     1852  UNL1852     0.1146
   7407 H          30.5219    9.0862   35.5330 H     1852  UNL1852     0.1146
   7408 H          29.7499    9.8900   34.3469 H     1852  UNL1852     0.1146
   7409 N          29.9407   12.0814    2.4117 N.3   1853  UNL1853    -0.3437
   7410 H          29.4278   12.4475    1.6109 H     1853  UNL1853     0.1146
   7411 H          30.2737   12.8946    2.9277 H     1853  UNL1853     0.1146
   7412 H          29.2468   11.6345    3.0092 H     1853  UNL1853     0.1146
   7413 N          29.4808   12.3248    4.9711 N.3   1854  UNL1854    -0.3437
   7414 H          30.3151   12.2134    4.3967 H     1854  UNL1854     0.1146
   7415 H          29.3929   11.4637    5.5089 H     1854  UNL1854     0.1146
   7416 H          29.7002   13.0561    5.6460 H     1854  UNL1854     0.1146
   7417 N          29.5261   12.3818    7.9589 N.3   1855  UNL1855    -0.3437
   7418 H          29.0849   11.8760    7.1922 H     1855  UNL1855     0.1146
   7419 H          30.1532   11.7172    8.4098 H     1855  UNL1855     0.1146
   7420 H          30.1249   13.0830    7.5251 H     1855  UNL1855     0.1146
   7421 N          29.5184   12.1279   10.2475 N.3   1856  UNL1856    -0.3437
   7422 H          29.1319   12.5266   11.1020 H     1856  UNL1856     0.1146
   7423 H          29.9698   12.8987    9.7571 H     1856  UNL1856     0.1146
   7424 H          30.2689   11.5050   10.5427 H     1856  UNL1856     0.1146
   7425 N          29.5586   12.4404   13.2253 N.3   1857  UNL1857    -0.3437
   7426 H          29.0087   11.7151   12.7672 H     1857  UNL1857     0.1146
   7427 H          30.2906   11.9542   13.7412 H     1857  UNL1857     0.1146
   7428 H          30.0311   12.9483   12.4789 H     1857  UNL1857     0.1146
   7429 N          29.5865   12.0766   15.8773 N.3   1858  UNL1858    -0.3437
   7430 H          28.9587   12.4639   15.1744 H     1858  UNL1858     0.1146
   7431 H          30.3509   11.6420   15.3623 H     1858  UNL1858     0.1146
   7432 H          29.9929   12.8756   16.3619 H     1858  UNL1858     0.1146
   7433 N          29.9398   12.1840   18.1516 N.3   1859  UNL1859    -0.3437
   7434 H          29.0149   12.0690   17.7396 H     1859  UNL1859     0.1146
   7435 H          30.0027   13.1615   18.4325 H     1859  UNL1859     0.1146
   7436 H          29.9316   11.6436   19.0155 H     1859  UNL1859     0.1146
   7437 N          29.4791   12.1662   21.1120 N.3   1860  UNL1860    -0.3437
   7438 H          29.2710   12.6764   20.2548 H     1860  UNL1860     0.1146
   7439 H          30.1125   11.4141   20.8445 H     1860  UNL1860     0.1146
   7440 H          30.0263   12.8014   21.6912 H     1860  UNL1860     0.1146
   7441 N          29.5770   12.0847   23.8007 N.3   1861  UNL1861    -0.3437
   7442 H          29.9023   12.9362   24.2561 H     1861  UNL1861     0.1146
   7443 H          29.0053   12.3880   23.0136 H     1861  UNL1861     0.1146
   7444 H          30.4044   11.6492   23.3955 H     1861  UNL1861     0.1146
   7445 N          29.4664   12.3278   26.1235 N.3   1862  UNL1862    -0.3437
   7446 H          29.3407   11.7924   26.9814 H     1862  UNL1862     0.1146
   7447 H          29.9902   13.1613   26.3867 H     1862  UNL1862     0.1146
   7448 H          30.0917   11.7765   25.5375 H     1862  UNL1862     0.1146
   7449 N          29.5409   12.4529   29.0360 N.3   1863  UNL1863    -0.3437
   7450 H          29.0462   11.6716   28.6079 H     1863  UNL1863     0.1146
   7451 H          30.2304   12.0395   29.6622 H     1863  UNL1863     0.1146
   7452 H          30.0715   12.8941   28.2863 H     1863  UNL1863     0.1146
   7453 N          29.5219   12.4149   31.6958 N.3   1864  UNL1864    -0.3437
   7454 H          29.0984   11.7589   31.0410 H     1864  UNL1864     0.1146
   7455 H          30.1473   11.8631   32.2812 H     1864  UNL1864     0.1146
   7456 H          30.1215   13.0211   31.1377 H     1864  UNL1864     0.1146
   7457 N          29.7168   12.5600   35.1744 N.3   1865  UNL1865    -0.3437
   7458 H          30.4473   12.1902   35.7810 H     1865  UNL1865     0.1146
   7459 H          29.8818   12.1522   34.2553 H     1865  UNL1865     0.1146
   7460 H          28.8431   12.1557   35.5083 H     1865  UNL1865     0.1146
   7461 N          29.5189   15.0328   -0.3592 N.3   1866  UNL1866    -0.3437
   7462 H          29.1266   15.4636    0.4768 H     1866  UNL1866     0.1146
   7463 H          30.2584   15.6578   -0.6767 H     1866  UNL1866     0.1146
   7464 H          29.9851   14.1830   -0.0448 H     1866  UNL1866     0.1146
   7465 N          29.5884   14.8688    2.3381 N.3   1867  UNL1867    -0.3437
   7466 H          30.3715   15.2795    1.8317 H     1867  UNL1867     0.1146
   7467 H          29.9669   14.5478    3.2281 H     1867  UNL1867     0.1146
   7468 H          28.9622   15.6411    2.5614 H     1867  UNL1867     0.1146
   7469 N          29.5628   15.2534    5.3133 N.3   1868  UNL1868    -0.3437
   7470 H          29.0018   14.5465    4.8401 H     1868  UNL1868     0.1146
   7471 H          30.3060   14.7474    5.7929 H     1868  UNL1868     0.1146
   7472 H          30.0185   15.7899    4.5765 H     1868  UNL1868     0.1146
   7473 N          29.5532   15.2749    7.9213 N.3   1869  UNL1869    -0.3437
   7474 H          29.0119   14.5397    7.4688 H     1869  UNL1869     0.1146
   7475 H          30.2319   14.7995    8.5144 H     1869  UNL1869     0.1146
   7476 H          30.0920   15.7230    7.1815 H     1869  UNL1869     0.1146
   7477 N          29.5278   15.2432   10.5683 N.3   1870  UNL1870    -0.3437
   7478 H          29.0864   14.6881    9.8366 H     1870  UNL1870     0.1146
   7479 H          30.0503   14.5845   11.1440 H     1870  UNL1870     0.1146
   7480 H          30.2245   15.8214   10.1005 H     1870  UNL1870     0.1146
   7481 N          29.5652   15.2372   13.2515 N.3   1871  UNL1871    -0.3437
   7482 H          28.9787   14.7062   12.6093 H     1871  UNL1871     0.1146
   7483 H          30.1934   14.5606   13.6828 H     1871  UNL1871     0.1146
   7484 H          30.1516   15.8332   12.6690 H     1871  UNL1871     0.1146
   7485 N          29.4956   15.1687   15.5241 N.3   1872  UNL1872    -0.3437
   7486 H          29.2493   15.1143   16.5114 H     1872  UNL1872     0.1146
   7487 H          30.2893   15.8053   15.4673 H     1872  UNL1872     0.1146
   7488 H          29.8549   14.2488   15.2731 H     1872  UNL1872     0.1146
   7489 N          29.5744   15.2538   18.5266 N.3   1873  UNL1873    -0.3437
   7490 H          28.9774   14.5704   18.0630 H     1873  UNL1873     0.1146
   7491 H          30.3224   14.7202   18.9673 H     1873  UNL1873     0.1146
   7492 H          30.0148   15.7928   17.7824 H     1873  UNL1873     0.1146
   7493 N          29.5012   15.0141   20.7923 N.3   1874  UNL1874    -0.3437
   7494 H          29.1780   15.2335   21.7335 H     1874  UNL1874     0.1146
   7495 H          30.0293   15.8277   20.4799 H     1874  UNL1874     0.1146
   7496 H          30.1805   14.2618   20.8969 H     1874  UNL1874     0.1146
   7497 N          29.9281   15.0010   23.8115 N.3   1875  UNL1875    -0.3437
   7498 H          29.1756   15.5392   24.2385 H     1875  UNL1875     0.1146
   7499 H          29.4808   14.2109   23.3488 H     1875  UNL1875     0.1146
   7500 H          30.3045   15.5861   23.0670 H     1875  UNL1875     0.1146
   7501 N          29.5300   15.2448   26.4142 N.3   1876  UNL1876    -0.3437
   7502 H          29.0760   14.5316   25.8454 H     1876  UNL1876     0.1146
   7503 H          30.2020   14.7511   27.0000 H     1876  UNL1876     0.1146
   7504 H          30.0811   15.8096   25.7695 H     1876  UNL1876     0.1146
   7505 N          29.5309   15.2573   29.0425 N.3   1877  UNL1877    -0.3437
   7506 H          29.0787   14.6617   28.3503 H     1877  UNL1877     0.1146
   7507 H          30.0409   14.6298   29.6627 H     1877  UNL1877     0.1146
   7508 H          30.2384   15.7884   28.5369 H     1877  UNL1877     0.1146
   7509 N          29.5289   15.2748   31.6558 N.3   1878  UNL1878    -0.3437
   7510 H          29.0774   14.5290   31.1284 H     1878  UNL1878     0.1146
   7511 H          30.1024   14.8132   32.3604 H     1878  UNL1878     0.1146
   7512 H          30.1804   15.7201   31.0111 H     1878  UNL1878     0.1146
   7513 N          29.7283   15.3266   35.3490 N.3   1879  UNL1879    -0.3437
   7514 H          30.6048   14.8075   35.3727 H     1879  UNL1879     0.1146
   7515 H          29.5521   15.5356   34.3673 H     1879  UNL1879     0.1146
   7516 H          29.0038   14.6675   35.6301 H     1879  UNL1879     0.1146
   7517 N          29.5148   17.7810    2.3190 N.3   1880  UNL1880    -0.3437
   7518 H          30.0324   17.0948    2.8664 H     1880  UNL1880     0.1146
   7519 H          29.1301   18.4438    2.9906 H     1880  UNL1880     0.1146
   7520 H          30.2118   18.2966    1.7834 H     1880  UNL1880     0.1146
   7521 N          29.4969   18.0908    5.0890 N.3   1881  UNL1881    -0.3437
   7522 H          29.1890   17.1411    5.2929 H     1881  UNL1881     0.1146
   7523 H          30.0970   18.3644    5.8658 H     1881  UNL1881     0.1146
   7524 H          30.1060   18.0200    4.2751 H     1881  UNL1881     0.1146
   7525 N          29.5661   17.7013    7.9194 N.3   1882  UNL1882    -0.3437
   7526 H          29.0275   18.1518    7.1809 H     1882  UNL1882     0.1146
   7527 H          30.3912   17.3104    7.4668 H     1882  UNL1882     0.1146
   7528 H          29.9042   18.4528    8.5189 H     1882  UNL1882     0.1146
   7529 N          29.5442   18.1323   10.4721 N.3   1883  UNL1883    -0.3437
   7530 H          29.1242   17.4628    9.8289 H     1883  UNL1883     0.1146
   7531 H          29.7974   17.6015   11.3043 H     1883  UNL1883     0.1146
   7532 H          30.4232   18.4196   10.0440 H     1883  UNL1883     0.1146
   7533 N          29.7953   18.1123   13.2498 N.3   1884  UNL1884    -0.3437
   7534 H          29.0690   18.4178   12.6036 H     1884  UNL1884     0.1146
   7535 H          29.4421   17.2628   13.6880 H     1884  UNL1884     0.1146
   7536 H          30.5827   17.8233   12.6712 H     1884  UNL1884     0.1146
   7537 N          29.5734   18.1316   15.8099 N.3   1885  UNL1885    -0.3437
   7538 H          28.9699   17.4779   15.3131 H     1885  UNL1885     0.1146
   7539 H          30.0638   17.5817   16.5139 H     1885  UNL1885     0.1146
   7540 H          30.2820   18.4251   15.1390 H     1885  UNL1885     0.1146
   7541 N          29.6118   18.0991   18.5275 N.3   1886  UNL1886    -0.3437
   7542 H          28.9291   17.8033   17.8313 H     1886  UNL1886     0.1146
   7543 H          29.9431   17.2463   18.9761 H     1886  UNL1886     0.1146
   7544 H          30.4049   18.4675   18.0044 H     1886  UNL1886     0.1146
   7545 N          29.5465   18.0712   21.1446 N.3   1887  UNL1887    -0.3437
   7546 H          29.0398   17.5931   20.4009 H     1887  UNL1887     0.1146
   7547 H          30.0239   17.3421   21.6727 H     1887  UNL1887     0.1146
   7548 H          30.2788   18.6098   20.6843 H     1887  UNL1887     0.1146
   7549 N          29.5126   18.0863   23.7175 N.3   1888  UNL1888    -0.3437
   7550 H          29.1297   17.2533   23.2727 H     1888  UNL1888     0.1146
   7551 H          30.1324   17.7518   24.4539 H     1888  UNL1888     0.1146
   7552 H          30.1143   18.5249   23.0218 H     1888  UNL1888     0.1146
   7553 N          29.5440   18.0603   26.4339 N.3   1889  UNL1889    -0.3437
   7554 H          29.0321   17.4941   25.7588 H     1889  UNL1889     0.1146
   7555 H          30.1404   17.4135   26.9481 H     1889  UNL1889     0.1146
   7556 H          30.1724   18.6483   25.8882 H     1889  UNL1889     0.1146
   7557 N          29.5845   18.1138   28.7418 N.3   1890  UNL1890    -0.3437
   7558 H          29.6507   18.3405   29.7331 H     1890  UNL1890     0.1146
   7559 H          30.5397   17.9508   28.4265 H     1890  UNL1890     0.1146
   7560 H          29.1142   17.2112   28.6909 H     1890  UNL1890     0.1146
   7561 N          29.8281   17.6992   31.7239 N.3   1891  UNL1891    -0.3437
   7562 H          29.2260   17.3053   31.0023 H     1891  UNL1891     0.1146
   7563 H          30.5640   18.2033   31.2313 H     1891  UNL1891     0.1146
   7564 H          29.2710   18.4084   32.1983 H     1891  UNL1891     0.1146
   7565 N          29.8383   18.0996   34.9909 N.3   1892  UNL1892    -0.3437
   7566 H          29.6286   18.5074   35.9008 H     1892  UNL1892     0.1146
   7567 H          30.4580   17.3113   35.1724 H     1892  UNL1892     0.1146
   7568 H          28.9641   17.6979   34.6549 H     1892  UNL1892     0.1146
   7569 N          29.5679   20.5615   -0.3439 N.3   1893  UNL1893    -0.3437
   7570 H          28.9730   21.1275    0.2595 H     1893  UNL1893     0.1146
   7571 H          30.2069   21.2121   -0.7986 H     1893  UNL1893     0.1146
   7572 H          30.1411   19.9942    0.2791 H     1893  UNL1893     0.1146
   7573 N          29.5556   20.5791    2.2933 N.3   1894  UNL1894    -0.3437
   7574 H          29.0023   21.1155    2.9599 H     1894  UNL1894     0.1146
   7575 H          30.1919   21.2446    1.8566 H     1894  UNL1894     0.1146
   7576 H          30.1393   19.9561    2.8496 H     1894  UNL1894     0.1146
   7577 N          29.5440   20.5435    4.9788 N.3   1895  UNL1895    -0.3437
   7578 H          29.0332   21.1820    5.5869 H     1895  UNL1895     0.1146
   7579 H          30.1188   21.1298    4.3752 H     1895  UNL1895     0.1146
   7580 H          30.1930   20.0400    5.5819 H     1895  UNL1895     0.1146
   7581 N          29.5581   20.5273    7.6239 N.3   1896  UNL1896    -0.3437
   7582 H          29.0054   21.1118    8.2494 H     1896  UNL1896     0.1146
   7583 H          30.0554   21.1681    7.0071 H     1896  UNL1896     0.1146
   7584 H          30.2701   20.0882    8.2057 H     1896  UNL1896     0.1146
   7585 N          29.5308   20.5581   10.2599 N.3   1897  UNL1897    -0.3437
   7586 H          29.0702   21.2153   10.8879 H     1897  UNL1897     0.1146
   7587 H          30.1325   21.1189    9.6584 H     1897  UNL1897     0.1146
   7588 H          30.1555   20.0031   10.8431 H     1897  UNL1897     0.1146
   7589 N          29.5310   20.5637   12.8945 N.3   1898  UNL1898    -0.3437
   7590 H          29.0696   21.2216   13.5212 H     1898  UNL1898     0.1146
   7591 H          30.1560   21.1206   12.3134 H     1898  UNL1898     0.1146
   7592 H          30.1324   19.9894   13.4835 H     1898  UNL1898     0.1146
   7593 N          29.5360   20.5578   15.5356 N.3   1899  UNL1899    -0.3437
   7594 H          29.0555   21.2378   16.1229 H     1899  UNL1899     0.1146
   7595 H          30.1787   21.0934   14.9538 H     1899  UNL1899     0.1146
   7596 H          30.1189   20.0063   16.1636 H     1899  UNL1899     0.1146
   7597 N          29.5809   20.5796   18.1190 N.3   1900  UNL1900    -0.3437
   7598 H          28.9458   20.9719   18.8126 H     1900  UNL1900     0.1146
   7599 H          30.1362   21.3608   17.7730 H     1900  UNL1900     0.1146
   7600 H          30.2262   19.9830   18.6347 H     1900  UNL1900     0.1146
   7601 N          29.9654   20.6940   21.1411 N.3   1901  UNL1901    -0.3437
   7602 H          29.3185   19.9137   21.2468 H     1901  UNL1901     0.1146
   7603 H          30.1716   20.7550   20.1450 H     1901  UNL1901     0.1146
   7604 H          29.4336   21.5326   21.3696 H     1901  UNL1901     0.1146
   7605 N          29.5447   20.5740   23.4337 N.3   1902  UNL1902    -0.3437
   7606 H          29.0303   21.1461   24.1020 H     1902  UNL1902     0.1146
   7607 H          30.1700   21.2107   22.9417 H     1902  UNL1902     0.1146
   7608 H          30.1440   19.9646   23.9884 H     1902  UNL1902     0.1146
   7609 N          29.5415   20.5302   26.1261 N.3   1903  UNL1903    -0.3437
   7610 H          29.0391   21.2551   26.6365 H     1903  UNL1903     0.1146
   7611 H          30.1433   21.0184   25.4644 H     1903  UNL1903     0.1146
   7612 H          30.1651   20.0916   26.8021 H     1903  UNL1903     0.1146
   7613 N          29.5391   20.5588   28.7350 N.3   1904  UNL1904    -0.3437
   7614 H          29.0457   21.1817   29.3729 H     1904  UNL1904     0.1146
   7615 H          30.1414   21.1555   28.1696 H     1904  UNL1904     0.1146
   7616 H          30.1628   19.9994   29.3150 H     1904  UNL1904     0.1146
   7617 N          29.5153   20.5854   31.3797 N.3   1905  UNL1905    -0.3437
   7618 H          29.1207   21.1765   32.1100 H     1905  UNL1905     0.1146
   7619 H          30.1060   21.1936   30.8145 H     1905  UNL1905     0.1146
   7620 H          30.1470   19.9399   31.8515 H     1905  UNL1905     0.1146
   7621 N          29.9033   20.4909   34.1605 N.3   1906  UNL1906    -0.3437
   7622 H          29.0274   20.3519   33.6586 H     1906  UNL1906     0.1146
   7623 H          30.3138   21.3418   33.7786 H     1906  UNL1906     0.1146
   7624 H          29.6446   20.7107   35.1213 H     1906  UNL1906     0.1146
   7625 N          29.5506   23.3432   -0.2842 N.3   1907  UNL1907    -0.3437
   7626 H          30.0869   23.9043   -0.9446 H     1907  UNL1907     0.1146
   7627 H          30.2324   22.9221    0.3451 H     1907  UNL1907     0.1146
   7628 H          29.0191   24.0049    0.2798 H     1907  UNL1907     0.1146
   7629 N          29.5537   23.6849    2.6874 N.3   1908  UNL1908    -0.3437
   7630 H          30.3729   23.2488    3.1083 H     1908  UNL1908     0.1146
   7631 H          29.9077   24.3023    1.9581 H     1908  UNL1908     0.1146
   7632 H          29.0546   22.9385    2.2056 H     1908  UNL1908     0.1146
   7633 N          29.5495   23.4398    4.9145 N.3   1909  UNL1909    -0.3437
   7634 H          29.0204   23.8912    5.6592 H     1909  UNL1909     0.1146
   7635 H          30.2190   24.1338    4.5851 H     1909  UNL1909     0.1146
   7636 H          30.1001   22.7096    5.3640 H     1909  UNL1909     0.1146
   7637 N          29.5171   23.4102    7.6056 N.3   1910  UNL1910    -0.3437
   7638 H          29.1172   24.0673    8.2740 H     1910  UNL1910     0.1146
   7639 H          30.1855   23.9444    7.0521 H     1910  UNL1910     0.1146
   7640 H          30.0692   22.7525    8.1543 H     1910  UNL1910     0.1146
   7641 N          29.5452   23.3931   10.2296 N.3   1911  UNL1911    -0.3437
   7642 H          29.0289   23.9328   10.9228 H     1911  UNL1911     0.1146
   7643 H          30.1407   24.0602    9.7409 H     1911  UNL1911     0.1146
   7644 H          30.1742   22.7884   10.7560 H     1911  UNL1911     0.1146
   7645 N          29.5140   23.4029   12.8975 N.3   1912  UNL1912    -0.3437
   7646 H          29.1260   24.0785   13.5543 H     1912  UNL1912     0.1146
   7647 H          30.1617   23.9241   12.3083 H     1912  UNL1912     0.1146
   7648 H          30.0873   22.7690   13.4525 H     1912  UNL1912     0.1146
   7649 N          29.5037   23.4219   15.5365 N.3   1913  UNL1913    -0.3437
   7650 H          29.1639   24.0592   16.2554 H     1913  UNL1913     0.1146
   7651 H          30.1484   23.9637   14.9628 H     1913  UNL1913     0.1146
   7652 H          30.0730   22.7296   16.0212 H     1913  UNL1913     0.1146
   7653 N          29.5988   23.3873   18.1164 N.3   1914  UNL1914    -0.3437
   7654 H          30.2323   24.1087   17.7750 H     1914  UNL1914     0.1146
   7655 H          30.1468   22.8104   18.7531 H     1914  UNL1914     0.1146
   7656 H          28.9111   23.8681   18.6947 H     1914  UNL1914     0.1146
   7657 N          29.5908   23.3389   20.8078 N.3   1915  UNL1915    -0.3437
   7658 H          28.9384   23.8208   21.4245 H     1915  UNL1915     0.1146
   7659 H          30.0470   24.0657   20.2582 H     1915  UNL1915     0.1146
   7660 H          30.3128   22.9490   21.4121 H     1915  UNL1915     0.1146
   7661 N          29.5262   23.3927   23.4547 N.3   1916  UNL1916    -0.3437
   7662 H          29.0841   24.0229   24.1223 H     1916  UNL1916     0.1146
   7663 H          30.1428   23.9724   22.8870 H     1916  UNL1916     0.1146
   7664 H          30.1358   22.7865   24.0018 H     1916  UNL1916     0.1146
   7665 N          29.5120   23.3987   26.1083 N.3   1917  UNL1917    -0.3437
   7666 H          29.1320   24.0809   26.7629 H     1917  UNL1917     0.1146
   7667 H          30.1424   23.9165   25.4976 H     1917  UNL1917     0.1146
   7668 H          30.1025   22.7783   26.6604 H     1917  UNL1917     0.1146
   7669 N          29.5129   23.3932   28.7535 N.3   1918  UNL1918    -0.3437
   7670 H          29.1291   24.0994   29.3798 H     1918  UNL1918     0.1146
   7671 H          30.1467   23.8877   28.1273 H     1918  UNL1918     0.1146
   7672 H          30.1002   22.7941   29.3318 H     1918  UNL1918     0.1146
   7673 N          29.5201   23.3989   31.3790 N.3   1919  UNL1919    -0.3437
   7674 H          29.1039   24.0329   32.0595 H     1919  UNL1919     0.1146
   7675 H          30.1410   23.9693   30.8067 H     1919  UNL1919     0.1146
   7676 H          30.1240   22.7734   31.9105 H     1919  UNL1919     0.1146
   7677 N          29.4679   23.6218   34.3084 N.3   1920  UNL1920    -0.3437
   7678 H          29.3635   22.8261   33.6804 H     1920  UNL1920     0.1146
   7679 H          30.1849   23.3559   34.9820 H     1920  UNL1920     0.1146
   7680 H          29.8728   24.3706   33.7482 H     1920  UNL1920     0.1146
   7681 N          29.5346   26.2566   -0.3529 N.3   1921  UNL1921    -0.3437
   7682 H          29.0673   26.8030    0.3692 H     1921  UNL1921     0.1146
   7683 H          30.2409   26.8704   -0.7566 H     1921  UNL1921     0.1146
   7684 H          30.0461   25.5236    0.1364 H     1921  UNL1921     0.1146
   7685 N          29.4687   26.2805    2.3625 N.3   1922  UNL1922    -0.3437
   7686 H          29.3896   27.1681    2.8567 H     1922  UNL1922     0.1146
   7687 H          30.2264   26.3990    1.6915 H     1922  UNL1922     0.1146
   7688 H          29.8043   25.6060    3.0487 H     1922  UNL1922     0.1146
   7689 N          29.4942   26.2584    4.9747 N.3   1923  UNL1923    -0.3437
   7690 H          29.2275   27.0169    5.6006 H     1923  UNL1923     0.1146
   7691 H          30.2378   26.6292    4.3848 H     1923  UNL1923     0.1146
   7692 H          29.9296   25.5490    5.5626 H     1923  UNL1923     0.1146
   7693 N          29.5127   26.4556    7.9585 N.3   1924  UNL1924    -0.3437
   7694 H          29.1296   26.0558    7.1030 H     1924  UNL1924     0.1146
   7695 H          30.1114   25.7360    8.3612 H     1924  UNL1924     0.1146
   7696 H          30.1354   27.2062    7.6633 H     1924  UNL1924     0.1146
   7697 N          29.5213   26.3126   10.2016 N.3   1925  UNL1925    -0.3437
   7698 H          29.7125   25.4891   10.7704 H     1925  UNL1925     0.1146
   7699 H          29.2346   27.0428   10.8520 H     1925  UNL1925     0.1146
   7700 H          30.4207   26.6090    9.8253 H     1925  UNL1925     0.1146
   7701 N          29.4814   26.2247   12.9526 N.3   1926  UNL1926    -0.3437
   7702 H          29.9550   25.7065   13.6912 H     1926  UNL1926     0.1146
   7703 H          29.2735   27.1429   13.3426 H     1926  UNL1926     0.1146
   7704 H          30.1791   26.3795   12.2263 H     1926  UNL1926     0.1146
   7705 N          29.5139   26.3296   15.9009 N.3   1927  UNL1927    -0.3437
   7706 H          29.1253   26.5030   14.9750 H     1927  UNL1927     0.1146
   7707 H          30.1115   25.5097   15.8057 H     1927  UNL1927     0.1146
   7708 H          30.1383   27.1113   16.0943 H     1927  UNL1927     0.1146
   7709 N          29.5156   26.4371   18.1367 N.3   1928  UNL1928    -0.3437
   7710 H          29.1598   25.8215   18.8666 H     1928  UNL1928     0.1146
   7711 H          29.9072   27.2458   18.6175 H     1928  UNL1928     0.1146
   7712 H          30.3064   25.9491   17.7185 H     1928  UNL1928     0.1146
   7713 N          29.5066   26.4936   21.1302 N.3   1929  UNL1929    -0.3437
   7714 H          29.1754   25.7004   20.5830 H     1929  UNL1929     0.1146
   7715 H          30.2539   26.1340   21.7223 H     1929  UNL1929     0.1146
   7716 H          29.9531   27.1255   20.4671 H     1929  UNL1929     0.1146
   7717 N          29.5070   26.4751   23.7855 N.3   1930  UNL1930    -0.3437
   7718 H          29.1927   25.6928   23.2132 H     1930  UNL1930     0.1146
   7719 H          30.2947   26.1263   24.3298 H     1930  UNL1930     0.1146
   7720 H          29.8946   27.1593   23.1374 H     1930  UNL1930     0.1146
   7721 N          29.5122   26.4533   26.4448 N.3   1931  UNL1931    -0.3437
   7722 H          29.1506   25.8494   25.7079 H     1931  UNL1931     0.1146
   7723 H          30.2509   25.9232   26.9050 H     1931  UNL1931     0.1146
   7724 H          29.9754   27.2276   25.9714 H     1931  UNL1931     0.1146
   7725 N          29.5189   26.2685   28.7057 N.3   1932  UNL1932    -0.3437
   7726 H          29.1093   26.6317   29.5652 H     1932  UNL1932     0.1146
   7727 H          30.0963   27.0197   28.3305 H     1932  UNL1932     0.1146
   7728 H          30.1646   25.5337   28.9909 H     1932  UNL1932     0.1146
   7729 N          29.4637   26.4866   31.6120 N.3   1933  UNL1933    -0.3437
   7730 H          29.3551   25.6635   31.0211 H     1933  UNL1933     0.1146
   7731 H          29.9980   26.1809   32.4240 H     1933  UNL1933     0.1146
   7732 H          30.0722   27.1226   31.0986 H     1933  UNL1933     0.1146
   7733 N          29.7497   26.3434   34.8861 N.3   1934  UNL1934    -0.3437
   7734 H          30.0426   25.4946   35.3680 H     1934  UNL1934     0.1146
   7735 H          28.7900   26.5171   35.1814 H     1934  UNL1934     0.1146
   7736 H          30.3068   27.0985   35.2834 H     1934  UNL1934     0.1146
   7737 N          29.5290   30.0627   -0.3394 N.3   1935  UNL1935    -0.3437
   7738 H          29.0983   30.7424    0.2857 H     1935  UNL1935     0.1146
   7739 H          30.2856   30.5555   -0.8119 H     1935  UNL1935     0.1146
   7740 H          29.9761   29.3721    0.2618 H     1935  UNL1935     0.1146
   7741 N          29.5741   30.0515    2.2706 N.3   1936  UNL1936    -0.3437
   7742 H          28.9596   30.4263    2.9919 H     1936  UNL1936     0.1146
   7743 H          30.1402   30.8353    1.9487 H     1936  UNL1936     0.1146
   7744 H          30.2151   29.4196    2.7482 H     1936  UNL1936     0.1146
   7745 N          29.5013   30.0959    4.9548 N.3   1937  UNL1937    -0.3437
   7746 H          29.1745   30.4413    5.8561 H     1937  UNL1937     0.1146
   7747 H          30.0541   30.8495    4.5488 H     1937  UNL1937     0.1146
   7748 H          30.1590   29.3460    5.1631 H     1937  UNL1937     0.1146
   7749 N          29.4429   29.2525    7.8387 N.3   1938  UNL1938    -0.3437
   7750 H          30.0323   30.0735    7.7093 H     1938  UNL1938     0.1146
   7751 H          29.5190   28.7134    6.9773 H     1938  UNL1938     0.1146
   7752 H          29.8948   28.6932    8.5608 H     1938  UNL1938     0.1146
   7753 N          29.5362   30.1012   10.1977 N.3   1939  UNL1939    -0.3437
   7754 H          29.0550   30.4674   11.0179 H     1939  UNL1939     0.1146
   7755 H          30.1822   30.8316    9.9017 H     1939  UNL1939     0.1146
   7756 H          30.1156   29.3325   10.5319 H     1939  UNL1939     0.1146
   7757 N          29.5444   30.1018   12.8315 N.3   1940  UNL1940    -0.3437
   7758 H          29.0327   30.4658   13.6341 H     1940  UNL1940     0.1146
   7759 H          30.2010   30.8330   12.5620 H     1940  UNL1940     0.1146
   7760 H          30.1108   29.3321   13.1851 H     1940  UNL1940     0.1146
   7761 N          29.5447   30.1014   15.4722 N.3   1941  UNL1941    -0.3437
   7762 H          29.0314   30.4602   16.2761 H     1941  UNL1941     0.1146
   7763 H          30.1971   30.8371   15.2044 H     1941  UNL1941     0.1146
   7764 H          30.1158   29.3340   15.8233 H     1941  UNL1941     0.1146
   7765 N          29.5327   30.0474   18.1531 N.3   1942  UNL1942    -0.3437
   7766 H          29.0722   30.6965   18.7894 H     1942  UNL1942     0.1146
   7767 H          30.2346   30.5929   17.6548 H     1942  UNL1942     0.1146
   7768 H          30.0495   29.3958   18.7419 H     1942  UNL1942     0.1146
   7769 N          29.5112   30.1107   20.7818 N.3   1943  UNL1943    -0.3437
   7770 H          29.1350   30.4707   21.6577 H     1943  UNL1943     0.1146
   7771 H          30.1400   30.8309   20.4291 H     1943  UNL1943     0.1146
   7772 H          30.1028   29.3203   21.0340 H     1943  UNL1943     0.1146
   7773 N          29.8675   29.0910   23.3761 N.3   1944  UNL1944    -0.3437
   7774 H          28.9156   28.7305   23.4238 H     1944  UNL1944     0.1146
   7775 H          29.7862   30.1057   23.4226 H     1944  UNL1944     0.1146
   7776 H          30.3198   28.8055   24.2434 H     1944  UNL1944     0.1146
   7777 N          29.4937   30.0291   26.1505 N.3   1945  UNL1945    -0.3437
   7778 H          29.2034   30.7981   26.7526 H     1945  UNL1945     0.1146
   7779 H          30.0648   30.4468   25.4171 H     1945  UNL1945     0.1146
   7780 H          30.1271   29.4587   26.7090 H     1945  UNL1945     0.1146
   7781 N          29.5122   30.0528   28.7360 N.3   1946  UNL1946    -0.3437
   7782 H          29.1319   30.6830   29.4407 H     1946  UNL1946     0.1146
   7783 H          30.1527   30.6126   28.1749 H     1946  UNL1946     0.1146
   7784 H          30.0922   29.3842   29.2409 H     1946  UNL1946     0.1146
   7785 N          29.5010   30.1244   31.3519 N.3   1947  UNL1947    -0.3437
   7786 H          29.1736   30.4614   32.2561 H     1947  UNL1947     0.1146
   7787 H          30.1361   30.8389   30.9990 H     1947  UNL1947     0.1146
   7788 H          30.0782   29.3080   31.5487 H     1947  UNL1947     0.1146
   7789 N          29.4297   29.2188   34.2027 N.3   1948  UNL1948    -0.3437
   7790 H          29.8591   28.9134   35.0749 H     1948  UNL1948     0.1146
   7791 H          29.9118   30.0766   33.9376 H     1948  UNL1948     0.1146
   7792 H          29.6884   28.5238   33.5038 H     1948  UNL1948     0.1146
   7793 N          32.4623    1.1079    0.3197 N.3   1949  UNL1949    -0.3437
   7794 H          31.7208    0.6659   -0.2218 H     1949  UNL1949     0.1146
   7795 H          32.0016    1.7841    0.9270 H     1949  UNL1949     0.1146
   7796 H          32.8310    0.3838    0.9345 H     1949  UNL1949     0.1146
   7797 N          32.2025    1.1998    2.9338 N.3   1950  UNL1950    -0.3437
   7798 H          31.6365    1.2940    3.7758 H     1950  UNL1950     0.1146
   7799 H          33.1717    1.1773    3.2479 H     1950  UNL1950     0.1146
   7800 H          32.0051    0.2705    2.5652 H     1950  UNL1950     0.1146
   7801 N          32.4324    1.0903    5.9825 N.3   1951  UNL1951    -0.3437
   7802 H          32.9412    0.7654    5.1615 H     1951  UNL1951     0.1146
   7803 H          31.7697    1.7868    5.6449 H     1951  UNL1951     0.1146
   7804 H          31.8725    0.2992    6.2971 H     1951  UNL1951     0.1146
   7805 N          32.1430    0.9841    8.1384 N.3   1952  UNL1952    -0.3437
   7806 H          32.0132    1.8771    8.6117 H     1952  UNL1952     0.1146
   7807 H          33.1447    0.7983    8.1588 H     1952  UNL1952     0.1146
   7808 H          31.7149    0.2822    8.7405 H     1952  UNL1952     0.1146
   7809 N          32.0651    0.8374   10.8806 N.3   1953  UNL1953    -0.3437
   7810 H          31.6031    1.5337   11.4637 H     1953  UNL1953     0.1146
   7811 H          32.7729    1.3415   10.3485 H     1953  UNL1953     0.1146
   7812 H          32.5747    0.2291   11.5199 H     1953  UNL1953     0.1146
   7813 N          32.0703    0.8265   13.5254 N.3   1954  UNL1954    -0.3437
   7814 H          31.5789    1.4247   14.1880 H     1954  UNL1954     0.1146
   7815 H          32.6703    1.4443   12.9807 H     1954  UNL1954     0.1146
   7816 H          32.6963    0.2461   14.0819 H     1954  UNL1954     0.1146
   7817 N          32.4237    0.9031   18.1072 N.3   1955  UNL1955    -0.3437
   7818 H          31.5477    1.3312   17.8109 H     1955  UNL1955     0.1146
   7819 H          32.8790    1.5851   18.7122 H     1955  UNL1955     0.1146
   7820 H          32.1653    0.1223   18.7089 H     1955  UNL1955     0.1146
   7821 N          32.4188    0.8707   20.7587 N.3   1956  UNL1956    -0.3437
   7822 H          31.6338    1.4185   20.4094 H     1956  UNL1956     0.1146
   7823 H          32.9471    1.4938   21.3679 H     1956  UNL1956     0.1146
   7824 H          32.0162    0.1587   21.3664 H     1956  UNL1956     0.1146
   7825 N          32.3501    1.0890   23.3568 N.3   1957  UNL1957    -0.3437
   7826 H          31.7401    1.7457   23.8416 H     1957  UNL1957     0.1146
   7827 H          33.1094    0.8809   24.0038 H     1957  UNL1957     0.1146
   7828 H          31.8162    0.2261   23.2636 H     1957  UNL1957     0.1146
   7829 N          32.3408    0.8458   26.0117 N.3   1958  UNL1958    -0.3437
   7830 H          31.6549    1.5766   25.8279 H     1958  UNL1958     0.1146
   7831 H          33.1111    1.3000   26.5002 H     1958  UNL1958     0.1146
   7832 H          31.9089    0.2193   26.6894 H     1958  UNL1958     0.1146
   7833 N          32.3665    1.1190   28.6596 N.3   1959  UNL1959    -0.3437
   7834 H          31.7758    1.7363   29.2150 H     1959  UNL1959     0.1146
   7835 H          33.0854    0.7728   29.2935 H     1959  UNL1959     0.1146
   7836 H          31.7881    0.3136   28.4243 H     1959  UNL1959     0.1146
   7837 N          30.5488    0.9670   31.5502 N.3   1960  UNL1960    -0.3437
   7838 H          30.1604    1.5343   32.3023 H     1960  UNL1960     0.1146
   7839 H          30.0941    0.0578   31.6206 H     1960  UNL1960     0.1146
   7840 H          30.2126    1.3826   30.6826 H     1960  UNL1960     0.1146
   7841 N          32.2017   -1.3055   34.1836 N.3   1961  UNL1961    -0.3437
   7842 H          31.4628   -0.7785   33.7202 H     1961  UNL1961     0.1146
   7843 H          33.0647   -1.0663   33.6972 H     1961  UNL1961     0.1146
   7844 H          32.2866   -0.9080   35.1180 H     1961  UNL1961     0.1146
   7845 N          32.2168    3.9934   -0.3759 N.3   1962  UNL1962    -0.3437
   7846 H          31.6254    4.2138    0.4241 H     1962  UNL1962     0.1146
   7847 H          33.1731    3.9835   -0.0239 H     1962  UNL1962     0.1146
   7848 H          32.0005    3.0301   -0.6282 H     1962  UNL1962     0.1146
   7849 N          32.0737    3.9331    2.6861 N.3   1963  UNL1963    -0.3437
   7850 H          31.5942    3.2580    2.0923 H     1963  UNL1963     0.1146
   7851 H          32.8396    3.4256    3.1268 H     1963  UNL1963     0.1146
   7852 H          32.5083    4.6041    2.0542 H     1963  UNL1963     0.1146
   7853 N          32.0777    3.9089    5.3441 N.3   1964  UNL1964    -0.3437
   7854 H          31.6104    3.2341    4.7402 H     1964  UNL1964     0.1146
   7855 H          32.9023    3.4349    5.7097 H     1964  UNL1964     0.1146
   7856 H          32.4255    4.6429    4.7287 H     1964  UNL1964     0.1146
   7857 N          32.1933    4.0161    7.5734 N.3   1965  UNL1965    -0.3437
   7858 H          31.6826    4.1372    8.4468 H     1965  UNL1965     0.1146
   7859 H          33.1798    3.9852    7.8269 H     1965  UNL1965     0.1146
   7860 H          31.9601    3.0822    7.2389 H     1965  UNL1965     0.1146
   7861 N          32.1010    3.9363   10.6287 N.3   1966  UNL1966    -0.3437
   7862 H          31.5473    3.2547   10.1117 H     1966  UNL1966     0.1146
   7863 H          32.9172    3.4323   10.9725 H     1966  UNL1966     0.1146
   7864 H          32.4503    4.5974    9.9364 H     1966  UNL1966     0.1146
   7865 N          32.3190    3.9968   13.2686 N.3   1967  UNL1967    -0.3437
   7866 H          31.9361    3.1212   13.6223 H     1967  UNL1967     0.1146
   7867 H          33.1316    3.7423   12.7090 H     1967  UNL1967     0.1146
   7868 H          31.6291    4.3604   12.6127 H     1967  UNL1967     0.1146
   7869 N          32.1263    3.8652   15.9537 N.3   1968  UNL1968    -0.3437
   7870 H          31.9310    2.9197   15.6279 H     1968  UNL1968     0.1146
   7871 H          33.1415    3.9474   15.9852 H     1968  UNL1968     0.1146
   7872 H          31.8171    4.4884   15.2091 H     1968  UNL1968     0.1146
   7873 N          32.3275    3.6257   18.1118 N.3   1969  UNL1969    -0.3437
   7874 H          31.6855    4.3642   17.8278 H     1969  UNL1969     0.1146
   7875 H          33.1333    4.0962   18.5214 H     1969  UNL1969     0.1146
   7876 H          31.8695    3.1347   18.8782 H     1969  UNL1969     0.1146
   7877 N          32.1884    4.0009   21.1872 N.3   1970  UNL1970    -0.3437
   7878 H          31.7963    3.0781   21.3689 H     1970  UNL1970     0.1146
   7879 H          33.1918    3.8628   21.0754 H     1970  UNL1970     0.1146
   7880 H          31.8393    4.2789   20.2711 H     1970  UNL1970     0.1146
   7881 N          32.1070    3.9514   23.8272 N.3   1971  UNL1971    -0.3437
   7882 H          31.4876    3.4832   23.1671 H     1971  UNL1971     0.1146
   7883 H          32.7170    3.2265   24.2025 H     1971  UNL1971     0.1146
   7884 H          32.7042    4.5597   23.2690 H     1971  UNL1971     0.1146
   7885 N          32.0560    3.7192   26.0553 N.3   1972  UNL1972    -0.3437
   7886 H          31.6465    4.2991   26.7863 H     1972  UNL1972     0.1146
   7887 H          32.8156    4.2675   25.6543 H     1972  UNL1972     0.1146
   7888 H          32.4977    2.9350   26.5332 H     1972  UNL1972     0.1146
   7889 N          32.3735    4.0038   28.7146 N.3   1973  UNL1973    -0.3437
   7890 H          31.7573    4.4275   29.4068 H     1973  UNL1973     0.1146
   7891 H          33.0730    3.4835   29.2423 H     1973  UNL1973     0.1146
   7892 H          31.8120    3.3060   28.2286 H     1973  UNL1973     0.1146
   7893 N          32.1266    3.8022   31.8057 N.3   1974  UNL1974    -0.3437
   7894 H          31.6748    3.1702   31.1462 H     1974  UNL1974     0.1146
   7895 H          33.1068    3.5251   31.8337 H     1974  UNL1974     0.1146
   7896 H          32.1075    4.7232   31.3701 H     1974  UNL1974     0.1146
   7897 N          32.2846    1.5187   34.1138 N.3   1975  UNL1975    -0.3437
   7898 H          31.4011    1.9064   33.7857 H     1975  UNL1975     0.1146
   7899 H          33.0153    2.0981   33.7030 H     1975  UNL1975     0.1146
   7900 H          32.3147    1.6976   35.1165 H     1975  UNL1975     0.1146
   7901 N          32.2265    6.5404   -0.4329 N.3   1976  UNL1976    -0.3437
   7902 H          31.6096    6.0264    0.1944 H     1976  UNL1976     0.1146
   7903 H          32.0100    7.5265   -0.2943 H     1976  UNL1976     0.1146
   7904 H          33.1697    6.4065   -0.0711 H     1976  UNL1976     0.1146
   7905 N          32.4558    6.7819    2.6382 N.3   1977  UNL1977    -0.3437
   7906 H          32.0720    6.0141    3.1874 H     1977  UNL1977     0.1146
   7907 H          32.8303    6.3604    1.7894 H     1977  UNL1977     0.1146
   7908 H          31.6578    7.3434    2.3444 H     1977  UNL1977     0.1146
   7909 N          32.2816    6.4560    5.3717 N.3   1978  UNL1978    -0.3437
   7910 H          33.1246    6.4672    4.7992 H     1978  UNL1978     0.1146
   7911 H          32.0802    7.4299    5.5940 H     1978  UNL1978     0.1146
   7912 H          31.5294    6.1467    4.7578 H     1978  UNL1978     0.1146
   7913 N          32.3634    6.7389    8.0214 N.3   1979  UNL1979    -0.3437
   7914 H          31.6671    6.0144    8.1904 H     1979  UNL1979     0.1146
   7915 H          33.0794    6.3094    7.4371 H     1979  UNL1979     0.1146
   7916 H          31.9059    7.4372    7.4371 H     1979  UNL1979     0.1146
   7917 N          32.3262    6.7795   10.1710 N.3   1980  UNL1980    -0.3437
   7918 H          31.6223    6.0663    9.9861 H     1980  UNL1980     0.1146
   7919 H          31.9456    7.3640   10.9139 H     1980  UNL1980     0.1146
   7920 H          33.1217    6.2900   10.5784 H     1980  UNL1980     0.1146
   7921 N          32.1727    6.4413   12.8362 N.3   1981  UNL1981    -0.3437
   7922 H          31.8300    6.1479   13.7499 H     1981  UNL1981     0.1146
   7923 H          31.8285    7.3905   12.6986 H     1981  UNL1981     0.1146
   7924 H          33.1845    6.5201   12.9279 H     1981  UNL1981     0.1146
   7925 N          32.3603    6.7991   15.9079 N.3   1982  UNL1982    -0.3437
   7926 H          31.8122    6.0199   16.2698 H     1982  UNL1982     0.1146
   7927 H          33.0946    6.3842   15.3359 H     1982  UNL1982     0.1146
   7928 H          31.7487    7.2966   15.2623 H     1982  UNL1982     0.1146
   7929 N          32.0584    6.5944   18.1153 N.3   1983  UNL1983    -0.3437
   7930 H          31.7470    7.2480   18.8323 H     1983  UNL1983     0.1146
   7931 H          32.9613    6.9398   17.7933 H     1983  UNL1983     0.1146
   7932 H          32.2492    5.7176   18.5983 H     1983  UNL1983     0.1146
   7933 N          32.3702    6.7915   20.7609 N.3   1984  UNL1984    -0.3437
   7934 H          31.7614    7.3203   21.3838 H     1984  UNL1984     0.1146
   7935 H          33.0788    6.3649   21.3560 H     1984  UNL1984     0.1146
   7936 H          31.8054    6.0231   20.4018 H     1984  UNL1984     0.1146
   7937 N          32.5202    6.6182   23.4882 N.3   1985  UNL1985    -0.3437
   7938 H          32.1837    7.5667   23.6482 H     1985  UNL1985     0.1146
   7939 H          32.5091    6.1591   24.3979 H     1985  UNL1985     0.1146
   7940 H          31.8028    6.1558   22.9315 H     1985  UNL1985     0.1146
   7941 N          32.2661    6.7647   26.5175 N.3   1986  UNL1986    -0.3437
   7942 H          31.5650    6.0255   26.4995 H     1986  UNL1986     0.1146
   7943 H          33.1485    6.3210   26.2668 H     1986  UNL1986     0.1146
   7944 H          32.0362    7.3886   25.7453 H     1986  UNL1986     0.1146
   7945 N          32.0869    6.8653   28.8565 N.3   1987  UNL1987    -0.3437
   7946 H          31.6828    6.0277   28.4400 H     1987  UNL1987     0.1146
   7947 H          32.2278    6.6488   29.8423 H     1987  UNL1987     0.1146
   7948 H          33.0183    6.9581   28.4536 H     1987  UNL1987     0.1146
   7949 N          30.4783    6.7960   31.4506 N.3   1988  UNL1988    -0.3437
   7950 H          30.7887    5.9742   31.9671 H     1988  UNL1988     0.1146
   7951 H          29.9205    6.4451   30.6734 H     1988  UNL1988     0.1146
   7952 H          29.8283    7.2846   32.0647 H     1988  UNL1988     0.1146
   7953 N          32.4224    4.4733   34.3694 N.3   1989  UNL1989    -0.3437
   7954 H          31.7693    3.8794   33.8604 H     1989  UNL1989     0.1146
   7955 H          32.9683    4.9619   33.6612 H     1989  UNL1989     0.1146
   7956 H          31.8558    5.1853   34.8280 H     1989  UNL1989     0.1146
   7957 N          32.1227    9.2044    2.6011 N.3   1990  UNL1990    -0.3437
   7958 H          31.8863    9.3656    1.6230 H     1990  UNL1990     0.1146
   7959 H          33.1396    9.1513    2.6392 H     1990  UNL1990     0.1146
   7960 H          31.8673   10.0577    3.0961 H     1990  UNL1990     0.1146
   7961 N          32.4003    9.5573    4.8998 N.3   1991  UNL1991    -0.3437
   7962 H          32.0962   10.2717    5.5598 H     1991  UNL1991     0.1146
   7963 H          32.9604    8.8977    5.4381 H     1991  UNL1991     0.1146
   7964 H          31.5589    9.0523    4.6251 H     1991  UNL1991     0.1146
   7965 N          32.4873    9.2674    7.8098 N.3   1992  UNL1992    -0.3437
   7966 H          31.7558    9.1111    8.5018 H     1992  UNL1992     0.1146
   7967 H          32.0444    9.1450    6.9003 H     1992  UNL1992     0.1146
   7968 H          32.7283   10.2554    7.8741 H     1992  UNL1992     0.1146
   7969 N          32.1657    9.6664   10.5868 N.3   1993  UNL1993    -0.3437
   7970 H          31.3886    9.1110   10.2317 H     1993  UNL1993     0.1146
   7971 H          32.7840    9.0118   11.0637 H     1993  UNL1993     0.1146
   7972 H          32.6775    9.9898    9.7671 H     1993  UNL1993     0.1146
   7973 N          32.0911    9.5907   13.2520 N.3   1994  UNL1994    -0.3437
   7974 H          31.5358    9.2255   12.4796 H     1994  UNL1994     0.1146
   7975 H          32.5769    8.7893   13.6523 H     1994  UNL1994     0.1146
   7976 H          32.8121   10.1733   12.8287 H     1994  UNL1994     0.1146
   7977 N          32.1204    9.2711   15.4955 N.3   1995  UNL1995    -0.3437
   7978 H          31.5032    9.5438   16.2591 H     1995  UNL1995     0.1146
   7979 H          32.4662   10.1397   15.0901 H     1995  UNL1995     0.1146
   7980 H          32.9259    8.8243   15.9312 H     1995  UNL1995     0.1146
   7981 N          32.0847    9.2705   18.1663 N.3   1996  UNL1996    -0.3437
   7982 H          31.5406    9.9158   18.7373 H     1996  UNL1996     0.1146
   7983 H          32.7224    9.8480   17.6202 H     1996  UNL1996     0.1146
   7984 H          32.6681    8.7446   18.8155 H     1996  UNL1996     0.1146
   7985 N          32.1621    9.2818   20.7467 N.3   1997  UNL1997    -0.3437
   7986 H          31.3948    9.7344   21.2416 H     1997  UNL1997     0.1146
   7987 H          32.7968   10.0291   20.4691 H     1997  UNL1997     0.1146
   7988 H          32.6621    8.7336   21.4451 H     1997  UNL1997     0.1146
   7989 N          32.1836    9.7304   23.6449 N.3   1998  UNL1998    -0.3437
   7990 H          31.6250    9.1254   24.2452 H     1998  UNL1998     0.1146
   7991 H          33.1564    9.5388   23.8801 H     1998  UNL1998     0.1146
   7992 H          32.0508    9.3843   22.6957 H     1998  UNL1998     0.1146
   7993 N          32.3844    9.6397   26.4372 N.3   1999  UNL1999    -0.3437
   7994 H          31.6209    9.1370   26.8876 H     1999  UNL1999     0.1146
   7995 H          33.0275    8.9266   26.0961 H     1999  UNL1999     0.1146
   7996 H          31.9831   10.0756   25.6082 H     1999  UNL1999     0.1146
   7997 N          32.0495    9.5339   28.7042 N.3   2000  UNL2000    -0.3437
   7998 H          31.6435    9.1330   29.5484 H     2000  UNL2000     0.1146
   7999 H          32.6543   10.2924   29.0162 H     2000  UNL2000     0.1146
   8000 H          32.6686    8.8196   28.3237 H     2000  UNL2000     0.1146
   8001 N          32.3691    9.5617   31.7848 N.3   2001  UNL2001    -0.3437
   8002 H          31.4628    9.1238   31.9437 H     2001  UNL2001     0.1146
   8003 H          32.9619    8.8404   31.3764 H     2001  UNL2001     0.1146
   8004 H          32.2221   10.2531   31.0508 H     2001  UNL2001     0.1146
   8005 N          32.2000    7.1769   34.0669 N.3   2002  UNL2002    -0.3437
   8006 H          31.4078    7.8109   33.9730 H     2002  UNL2002     0.1146
   8007 H          32.9873    7.6426   33.6178 H     2002  UNL2002     0.1146
   8008 H          32.4207    7.1486   35.0613 H     2002  UNL2002     0.1146
   8009 N          32.0968   12.1818    0.0853 N.3   2003  UNL2003    -0.3437
   8010 H          32.4131   11.3911   -0.4743 H     2003  UNL2003     0.1146
   8011 H          32.9360   12.7039    0.3333 H     2003  UNL2003     0.1146
   8012 H          31.5700   12.7813   -0.5482 H     2003  UNL2003     0.1146
   8013 N          32.0645   12.2238    2.7130 N.3   2004  UNL2004    -0.3437
   8014 H          31.6781   12.8025    1.9686 H     2004  UNL2004     0.1146
   8015 H          32.3471   11.3500    2.2715 H     2004  UNL2004     0.1146
   8016 H          32.9262   12.6818    3.0063 H     2004  UNL2004     0.1146
   8017 N          32.1250   12.4571    4.9472 N.3   2005  UNL2005    -0.3437
   8018 H          31.4788   12.0772    5.6375 H     2005  UNL2005     0.1146
   8019 H          32.8914   12.8699    5.4771 H     2005  UNL2005     0.1146
   8020 H          32.5206   11.6538    4.4608 H     2005  UNL2005     0.1146
   8021 N          32.0538   12.3735    7.9597 N.3   2006  UNL2006    -0.3437
   8022 H          31.6606   11.6815    7.3233 H     2006  UNL2006     0.1146
   8023 H          32.8291   11.9115    8.4328 H     2006  UNL2006     0.1146
   8024 H          32.4723   13.0916    7.3702 H     2006  UNL2006     0.1146
   8025 N          32.1288   12.0909   10.2084 N.3   2007  UNL2007    -0.3437
   8026 H          31.4444   12.5651   10.7958 H     2007  UNL2007     0.1146
   8027 H          32.7058   12.8252    9.8006 H     2007  UNL2007     0.1146
   8028 H          32.7368   11.5769   10.8445 H     2007  UNL2007     0.1146
   8029 N          32.1784   12.5262   13.1680 N.3   2008  UNL2008    -0.3437
   8030 H          31.5287   12.2086   12.4501 H     2008  UNL2008     0.1146
   8031 H          32.2108   11.7841   13.8656 H     2008  UNL2008     0.1146
   8032 H          33.0978   12.5392   12.7289 H     2008  UNL2008     0.1146
   8033 N          32.3320   12.4430   15.9163 N.3   2009  UNL2009    -0.3437
   8034 H          31.6050   12.8440   15.3256 H     2009  UNL2009     0.1146
   8035 H          31.9693   11.5471   16.2390 H     2009  UNL2009     0.1146
   8036 H          33.1095   12.2239   15.2951 H     2009  UNL2009     0.1146
   8037 N          32.0736   12.2302   18.1031 N.3   2010  UNL2010    -0.3437
   8038 H          31.6281   12.7149   18.8810 H     2010  UNL2010     0.1146
   8039 H          32.9079   12.7698   17.8767 H     2010  UNL2010     0.1146
   8040 H          32.4062   11.3431   18.4784 H     2010  UNL2010     0.1146
   8041 N          32.3763   12.4360   20.7683 N.3   2011  UNL2011    -0.3437
   8042 H          31.7542   12.9515   21.3893 H     2011  UNL2011     0.1146
   8043 H          33.0678   11.9906   21.3697 H     2011  UNL2011     0.1146
   8044 H          31.8175   11.6800   20.3752 H     2011  UNL2011     0.1146
   8045 N          32.3984   12.4842   23.4814 N.3   2012  UNL2012    -0.3437
   8046 H          31.6115   12.8139   24.0386 H     2012  UNL2012     0.1146
   8047 H          32.9921   11.9556   24.1189 H     2012  UNL2012     0.1146
   8048 H          32.0138   11.8043   22.8270 H     2012  UNL2012     0.1146
   8049 N          32.2983   12.0790   26.0315 N.3   2013  UNL2013    -0.3437
   8050 H          31.5970   11.7398   26.6884 H     2013  UNL2013     0.1146
   8051 H          31.9788   12.9984   25.7295 H     2013  UNL2013     0.1146
   8052 H          33.1417   12.2409   26.5798 H     2013  UNL2013     0.1146
   8053 N          32.0758   12.4347   29.0615 N.3   2014  UNL2014    -0.3437
   8054 H          31.5718   11.7070   28.5566 H     2014  UNL2014     0.1146
   8055 H          32.7807   11.9535   29.6182 H     2014  UNL2014     0.1146
   8056 H          32.5875   12.9629   28.3561 H     2014  UNL2014     0.1146
   8057 N          32.1118   12.4579   31.7116 N.3   2015  UNL2015    -0.3437
   8058 H          31.4889   11.9724   31.0677 H     2015  UNL2015     0.1146
   8059 H          32.5884   11.7308   32.2432 H     2015  UNL2015     0.1146
   8060 H          32.8267   12.8970   31.1332 H     2015  UNL2015     0.1146
   8061 N          32.2238    9.9714   34.1563 N.3   2016  UNL2016    -0.3437
   8062 H          31.5252   10.4837   33.6197 H     2016  UNL2016     0.1146
   8063 H          33.1294   10.3021   33.8263 H     2016  UNL2016     0.1146
   8064 H          32.1374   10.3008   35.1167 H     2016  UNL2016     0.1146
   8065 N          32.2134   14.9135   -0.3888 N.3   2017  UNL2017    -0.3437
   8066 H          31.6136   14.6508    0.3919 H     2017  UNL2017     0.1146
   8067 H          32.0207   15.8972   -0.5724 H     2017  UNL2017     0.1146
   8068 H          33.1681   14.8757   -0.0346 H     2017  UNL2017     0.1146
   8069 N          32.3309   15.0307    2.2095 N.3   2018  UNL2018    -0.3437
   8070 H          31.6739   14.3434    2.5760 H     2018  UNL2018     0.1146
   8071 H          31.8836   15.9385    2.3288 H     2018  UNL2018     0.1146
   8072 H          33.1274   15.0245    2.8451 H     2018  UNL2018     0.1146
   8073 N          32.3845   15.2691    4.9405 N.3   2019  UNL2019    -0.3437
   8074 H          31.8268   14.5543    4.4754 H     2019  UNL2019     0.1146
   8075 H          31.7521   15.7455    5.5820 H     2019  UNL2019     0.1146
   8076 H          33.0524   14.7683    5.5248 H     2019  UNL2019     0.1146
   8077 N          32.1359   15.3271    7.8918 N.3   2020  UNL2020    -0.3437
   8078 H          31.5582   14.9340    7.1501 H     2020  UNL2020     0.1146
   8079 H          32.2717   14.5779    8.5690 H     2020  UNL2020     0.1146
   8080 H          33.0500   15.4981    7.4751 H     2020  UNL2020     0.1146
   8081 N          32.1101   15.2025   10.6419 N.3   2021  UNL2021    -0.3437
   8082 H          31.5808   14.4617   10.1842 H     2021  UNL2021     0.1146
   8083 H          33.0021   14.7876   10.9072 H     2021  UNL2021     0.1146
   8084 H          32.3228   15.8853    9.9160 H     2021  UNL2021     0.1146
   8085 N          32.0860   15.2888   13.1848 N.3   2022  UNL2022    -0.3437
   8086 H          31.5624   14.7125   12.5276 H     2022  UNL2022     0.1146
   8087 H          32.5122   14.6425   13.8474 H     2022  UNL2022     0.1146
   8088 H          32.8552   15.6933   12.6528 H     2022  UNL2022     0.1146
   8089 N          32.0967   15.2284   15.8986 N.3   2023  UNL2023    -0.3437
   8090 H          31.5190   14.6398   15.3002 H     2023  UNL2023     0.1146
   8091 H          32.8003   14.6124   16.3036 H     2023  UNL2023     0.1146
   8092 H          32.5998   15.8565   15.2735 H     2023  UNL2023     0.1146
   8093 N          32.2501   15.2995   18.1322 N.3   2024  UNL2024    -0.3437
   8094 H          31.9029   15.6064   19.0398 H     2024  UNL2024     0.1146
   8095 H          33.1857   14.9319   18.2991 H     2024  UNL2024     0.1146
   8096 H          31.6770   14.4994   17.8681 H     2024  UNL2024     0.1146
   8097 N          32.3910   14.8910   21.1523 N.3   2025  UNL2025    -0.3437
   8098 H          31.6029   15.3500   21.6067 H     2025  UNL2025     0.1146
   8099 H          32.0160   14.4576   20.3097 H     2025  UNL2025     0.1146
   8100 H          33.0059   15.6385   20.8338 H     2025  UNL2025     0.1146
   8101 N          32.1267   15.0196   23.8753 N.3   2026  UNL2026    -0.3437
   8102 H          31.8550   14.3783   23.1315 H     2026  UNL2026     0.1146
   8103 H          33.1443   14.9863   23.9170 H     2026  UNL2026     0.1146
   8104 H          31.8897   15.9529   23.5419 H     2026  UNL2026     0.1146
   8105 N          32.4491   15.2500   26.4051 N.3   2027  UNL2027    -0.3437
   8106 H          31.9156   14.6317   27.0146 H     2027  UNL2027     0.1146
   8107 H          32.8891   14.6483   25.7102 H     2027  UNL2027     0.1146
   8108 H          31.7620   15.8072   25.8993 H     2027  UNL2027     0.1146
   8109 N          32.1069   15.2046   29.1246 N.3   2028  UNL2028    -0.3437
   8110 H          31.6080   14.4235   28.7012 H     2028  UNL2028     0.1146
   8111 H          33.0195   14.8411   29.3956 H     2028  UNL2028     0.1146
   8112 H          32.2814   15.8680   28.3710 H     2028  UNL2028     0.1146
   8113 N          32.0879   15.2993   31.6555 N.3   2029  UNL2029    -0.3437
   8114 H          31.5570   14.6766   31.0483 H     2029  UNL2029     0.1146
   8115 H          32.5157   14.7040   32.3633 H     2029  UNL2029     0.1146
   8116 H          32.8553   15.6573   31.0887 H     2029  UNL2029     0.1146
   8117 N          32.2900   13.2566   34.4172 N.3   2030  UNL2030    -0.3437
   8118 H          31.5411   13.5794   33.8064 H     2030  UNL2030     0.1146
   8119 H          32.0594   12.2941   34.6598 H     2030  UNL2030     0.1146
   8120 H          33.1253   13.2071   33.8356 H     2030  UNL2030     0.1146
   8121 N          32.2668   18.0352    0.7545 N.3   2031  UNL2031    -0.3437
   8122 H          32.2133   17.0197    0.8202 H     2031  UNL2031     0.1146
   8123 H          33.0802   18.2367    0.1747 H     2031  UNL2031     0.1146
   8124 H          31.4554   18.3246    0.2101 H     2031  UNL2031     0.1146
   8125 N          32.3622   18.0702    3.3499 N.3   2032  UNL2032    -0.3437
   8126 H          33.0603   17.8496    2.6412 H     2032  UNL2032     0.1146
   8127 H          31.5934   18.5213    2.8561 H     2032  UNL2032     0.1146
   8128 H          32.0000   17.1751    3.6755 H     2032  UNL2032     0.1146
   8129 N          32.0897   17.7156    5.9293 N.3   2033  UNL2033    -0.3437
   8130 H          31.5488   18.2154    5.2251 H     2033  UNL2033     0.1146
   8131 H          32.8464   17.2538    5.4267 H     2033  UNL2033     0.1146
   8132 H          32.5309   18.4315    6.5049 H     2033  UNL2033     0.1146
   8133 N          32.3125   17.7399    8.6511 N.3   2034  UNL2034    -0.3437
   8134 H          31.4067   18.2036    8.7041 H     2034  UNL2034     0.1146
   8135 H          32.2985   17.1937    7.7909 H     2034  UNL2034     0.1146
   8136 H          32.9981   18.4791    8.5032 H     2034  UNL2034     0.1146
   8137 N          32.1926   17.8302   10.9166 N.3   2035  UNL2035    -0.3437
   8138 H          31.6263   18.6081   11.2520 H     2035  UNL2035     0.1146
   8139 H          33.1630   18.1131   11.0456 H     2035  UNL2035     0.1146
   8140 H          32.0339   17.0649   11.5704 H     2035  UNL2035     0.1146
   8141 N          32.3889   17.6921   13.6814 N.3   2036  UNL2036    -0.3437
   8142 H          32.0181   18.4371   13.0933 H     2036  UNL2036     0.1146
   8143 H          33.0094   18.1451   14.3508 H     2036  UNL2036     0.1146
   8144 H          31.5995   17.3421   14.2224 H     2036  UNL2036     0.1146
   8145 N          32.2836   17.8852   16.1843 N.3   2037  UNL2037    -0.3437
   8146 H          31.5404   18.5233   16.4651 H     2037  UNL2037     0.1146
   8147 H          33.1291   18.2186   16.6452 H     2037  UNL2037     0.1146
   8148 H          32.0628   16.9892   16.6166 H     2037  UNL2037     0.1146
   8149 N          32.3154   17.6839   19.1631 N.3   2038  UNL2038    -0.3437
   8150 H          33.1314   18.2530   18.9425 H     2038  UNL2038     0.1146
   8151 H          31.6142   18.3276   19.5271 H     2038  UNL2038     0.1146
   8152 H          31.9548   17.3518   18.2698 H     2038  UNL2038     0.1146
   8153 N          32.0968   17.8046   21.3867 N.3   2039  UNL2039    -0.3437
   8154 H          31.5306   18.3235   22.0565 H     2039  UNL2039     0.1146
   8155 H          32.8484   18.4336   21.1075 H     2039  UNL2039     0.1146
   8156 H          32.5401   17.0546   21.9152 H     2039  UNL2039     0.1146
   8157 N          32.2618   17.8273   24.1149 N.3   2040  UNL2040    -0.3437
   8158 H          31.6799   18.6459   24.2868 H     2040  UNL2040     0.1146
   8159 H          33.1827   18.0541   24.4876 H     2040  UNL2040     0.1146
   8160 H          31.8914   17.0890   24.7118 H     2040  UNL2040     0.1146
   8161 N          32.1450   17.9212   26.7668 N.3   2041  UNL2041    -0.3437
   8162 H          31.8303   18.6843   27.3643 H     2041  UNL2041     0.1146
   8163 H          33.1634   17.9489   26.7890 H     2041  UNL2041     0.1146
   8164 H          31.8770   17.0618   27.2443 H     2041  UNL2041     0.1146
   8165 N          32.0502   17.6980   29.6234 N.3   2042  UNL2042    -0.3437
   8166 H          31.6913   18.6466   29.5242 H     2042  UNL2042     0.1146
   8167 H          32.8598   17.6382   29.0074 H     2042  UNL2042     0.1146
   8168 H          32.4145   17.6335   30.5729 H     2042  UNL2042     0.1146
   8169 N          32.1555   16.1827   34.1847 N.3   2043  UNL2043    -0.3437
   8170 H          31.5009   15.5413   33.7392 H     2043  UNL2043     0.1146
   8171 H          32.3253   15.8080   35.1170 H     2043  UNL2043     0.1146
   8172 H          33.0341   16.0842   33.6781 H     2043  UNL2043     0.1146
   8173 N          32.0646   20.5758   -0.3230 N.3   2044  UNL2044    -0.3437
   8174 H          31.5958   21.1897    0.3415 H     2044  UNL2044     0.1146
   8175 H          32.6990   21.1699   -0.8551 H     2044  UNL2044     0.1146
   8176 H          32.6565   19.9599    0.2327 H     2044  UNL2044     0.1146
   8177 N          32.0939   20.5566    2.3061 N.3   2045  UNL2045    -0.3437
   8178 H          31.5172   21.1195    2.9296 H     2045  UNL2045     0.1146
   8179 H          32.6999   21.2125    1.8152 H     2045  UNL2045     0.1146
   8180 H          32.7048   20.0068    2.9085 H     2045  UNL2045     0.1146
   8181 N          32.1252   20.6992    4.8657 N.3   2046  UNL2046    -0.3437
   8182 H          31.6223   21.3269    5.4913 H     2046  UNL2046     0.1146
   8183 H          33.0762   21.0609    4.8097 H     2046  UNL2046     0.1146
   8184 H          32.1921   19.8083    5.3559 H     2046  UNL2046     0.1146
   8185 N          32.2125   20.7708    7.4826 N.3   2047  UNL2047    -0.3437
   8186 H          31.5920   21.3304    8.0659 H     2047  UNL2047     0.1146
   8187 H          33.1595   20.9931    7.7862 H     2047  UNL2047     0.1146
   8188 H          32.0518   19.8011    7.7513 H     2047  UNL2047     0.1146
   8189 N          32.0768   20.5366   10.2677 N.3   2048  UNL2048    -0.3437
   8190 H          31.5674   21.1519   10.9004 H     2048  UNL2048     0.1146
   8191 H          32.5994   21.1477    9.6418 H     2048  UNL2048     0.1146
   8192 H          32.7722   20.0592   10.8394 H     2048  UNL2048     0.1146
   8193 N          32.0802   20.5491   12.8899 N.3   2049  UNL2049    -0.3437
   8194 H          31.5520   21.1649   13.5064 H     2049  UNL2049     0.1146
   8195 H          32.6708   21.1572   12.3243 H     2049  UNL2049     0.1146
   8196 H          32.7128   20.0241   13.4920 H     2049  UNL2049     0.1146
   8197 N          32.0718   20.5686   15.5205 N.3   2050  UNL2050    -0.3437
   8198 H          31.5797   21.2415   16.1065 H     2050  UNL2050     0.1146
   8199 H          32.7577   21.1055   14.9916 H     2050  UNL2050     0.1146
   8200 H          32.6066   19.9797   16.1573 H     2050  UNL2050     0.1146
   8201 N          32.1470   20.7229   18.0593 N.3   2051  UNL2051    -0.3437
   8202 H          31.5661   21.2549   18.7058 H     2051  UNL2051     0.1146
   8203 H          33.0791   21.1303   18.1189 H     2051  UNL2051     0.1146
   8204 H          32.2236   19.7872   18.4553 H     2051  UNL2051     0.1146
   8205 N          32.3369   20.5743   20.7345 N.3   2052  UNL2052    -0.3437
   8206 H          31.7803   20.0108   21.3756 H     2052  UNL2052     0.1146
   8207 H          31.7704   21.3925   20.5154 H     2052  UNL2052     0.1146
   8208 H          33.1282   20.9178   21.2770 H     2052  UNL2052     0.1146
   8209 N          32.0660   20.5883   23.4329 N.3   2053  UNL2053    -0.3437
   8210 H          32.6928   19.9385   23.9054 H     2053  UNL2053     0.1146
   8211 H          31.5915   21.1073   24.1703 H     2053  UNL2053     0.1146
   8212 H          32.6655   21.2611   22.9572 H     2053  UNL2053     0.1146
   8213 N          32.3601   20.8857   26.0339 N.3   2054  UNL2054    -0.3437
   8214 H          31.6809   21.3924   26.5999 H     2054  UNL2054     0.1146
   8215 H          33.0875   20.5771   26.6773 H     2054  UNL2054     0.1146
   8216 H          31.8873   20.0401   25.7180 H     2054  UNL2054     0.1146
   8217 N          32.3949   20.9301   28.7401 N.3   2055  UNL2055    -0.3437
   8218 H          31.7091   21.3255   29.3817 H     2055  UNL2055     0.1146
   8219 H          33.0267   20.3723   29.3130 H     2055  UNL2055     0.1146
   8220 H          31.8851   20.2674   28.1576 H     2055  UNL2055     0.1146
   8221 N          32.0974   20.7181   31.2883 N.3   2056  UNL2056    -0.3437
   8222 H          31.6705   21.3018   32.0061 H     2056  UNL2056     0.1146
   8223 H          33.0405   21.0805   31.1557 H     2056  UNL2056     0.1146
   8224 H          32.2074   19.7950   31.7056 H     2056  UNL2056     0.1146
   8225 N          32.1318   18.5991   34.9412 N.3   2057  UNL2057    -0.3437
   8226 H          31.5629   19.3510   35.3277 H     2057  UNL2057     0.1146
   8227 H          33.0448   19.0086   34.7482 H     2057  UNL2057     0.1146
   8228 H          32.2763   17.9367   35.7019 H     2057  UNL2057     0.1146
   8229 N          32.3570   23.4074    2.2486 N.3   2058  UNL2058    -0.3437
   8230 H          31.6161   24.0747    2.0384 H     2058  UNL2058     0.1146
   8231 H          33.0769   23.9333    2.7421 H     2058  UNL2058     0.1146
   8232 H          31.9658   22.7590    2.9304 H     2058  UNL2058     0.1146
   8233 N          32.1171   23.3686    4.9357 N.3   2059  UNL2059    -0.3437
   8234 H          31.4888   23.7242    5.6549 H     2059  UNL2059     0.1146
   8235 H          32.5393   24.1881    4.5014 H     2059  UNL2059     0.1146
   8236 H          32.8705   22.8936    5.4308 H     2059  UNL2059     0.1146
   8237 N          32.1017   23.3570    7.6001 N.3   2060  UNL2060    -0.3437
   8238 H          31.5105   23.8510    8.2671 H     2060  UNL2060     0.1146
   8239 H          32.5853   24.0776    7.0659 H     2060  UNL2060     0.1146
   8240 H          32.8183   22.8889    8.1530 H     2060  UNL2060     0.1146
   8241 N          32.0503   23.4245   10.2343 N.3   2061  UNL2061    -0.3437
   8242 H          31.6493   24.0625   10.9201 H     2061  UNL2061     0.1146
   8243 H          32.7516   23.9622    9.7268 H     2061  UNL2061     0.1146
   8244 H          32.5646   22.7253   10.7681 H     2061  UNL2061     0.1146
   8245 N          32.0894   23.3974   12.8559 N.3   2062  UNL2062    -0.3437
   8246 H          31.5284   23.9259   13.5224 H     2062  UNL2062     0.1146
   8247 H          32.7189   24.0711   12.4220 H     2062  UNL2062     0.1146
   8248 H          32.6791   22.7801   13.4123 H     2062  UNL2062     0.1146
   8249 N          32.0746   23.3893   15.5167 N.3   2063  UNL2063    -0.3437
   8250 H          31.5666   23.9636   16.1879 H     2063  UNL2063     0.1146
   8251 H          32.6821   24.0272   15.0043 H     2063  UNL2063     0.1146
   8252 H          32.6925   22.7944   16.0670 H     2063  UNL2063     0.1146
   8253 N          32.0659   23.4084   18.1511 N.3   2064  UNL2064    -0.3437
   8254 H          31.5951   24.0167   18.8194 H     2064  UNL2064     0.1146
   8255 H          32.7401   23.9962   17.6628 H     2064  UNL2064     0.1146
   8256 H          32.6147   22.7531   18.7059 H     2064  UNL2064     0.1146
   8257 N          32.0916   23.4353   20.7536 N.3   2065  UNL2065    -0.3437
   8258 H          31.6070   24.1623   21.2781 H     2065  UNL2065     0.1146
   8259 H          32.9650   23.8531   20.4359 H     2065  UNL2065     0.1146
   8260 H          32.3522   22.7238   21.4349 H     2065  UNL2065     0.1146
   8261 N          32.0725   23.4223   23.4171 N.3   2066  UNL2066    -0.3437
   8262 H          31.5946   24.0687   24.0434 H     2066  UNL2066     0.1146
   8263 H          32.8293   23.9538   22.9892 H     2066  UNL2066     0.1146
   8264 H          32.5195   22.7297   24.0161 H     2066  UNL2066     0.1146
   8265 N          32.0722   23.3764   26.0949 N.3   2067  UNL2067    -0.3437
   8266 H          31.5734   24.0172   26.7105 H     2067  UNL2067     0.1146
   8267 H          32.6883   23.9556   25.5263 H     2067  UNL2067     0.1146
   8268 H          32.6819   22.8254   26.6975 H     2067  UNL2067     0.1146
   8269 N          32.0844   23.3684   28.7311 N.3   2068  UNL2068    -0.3437
   8270 H          31.5456   24.0623   29.2472 H     2068  UNL2068     0.1146
   8271 H          32.7676   23.8920   28.1857 H     2068  UNL2068     0.1146
   8272 H          32.6183   22.8517   29.4285 H     2068  UNL2068     0.1146
   8273 N          32.0812   23.3634   31.3807 N.3   2069  UNL2069    -0.3437
   8274 H          31.5717   23.8543   32.1140 H     2069  UNL2069     0.1146
   8275 H          32.5219   24.0858   30.8130 H     2069  UNL2069     0.1146
   8276 H          32.8411   22.8710   31.8480 H     2069  UNL2069     0.1146
   8277 N          32.4381   21.7748   35.1805 N.3   2070  UNL2070    -0.3437
   8278 H          32.7661   21.0080   35.7659 H     2070  UNL2070     0.1146
   8279 H          32.3039   21.3806   34.2504 H     2070  UNL2070     0.1146
   8280 H          31.5077   22.0110   35.5222 H     2070  UNL2070     0.1146
   8281 N          32.0793   26.3342   -0.3876 N.3   2071  UNL2071    -0.3437
   8282 H          31.6775   26.9401    0.3263 H     2071  UNL2071     0.1146
   8283 H          32.9886   26.7336   -0.6158 H     2071  UNL2071     0.1146
   8284 H          32.2705   25.4457    0.0732 H     2071  UNL2071     0.1146
   8285 N          32.2907   26.2650    2.2136 N.3   2072  UNL2072    -0.3437
   8286 H          31.9022   27.2064    2.2481 H     2072  UNL2072     0.1146
   8287 H          33.1635   26.3019    2.7382 H     2072  UNL2072     0.1146
   8288 H          31.6594   25.6804    2.7595 H     2072  UNL2072     0.1146
   8289 N          32.3139   26.3545    4.8414 N.3   2073  UNL2073    -0.3437
   8290 H          31.8575   27.2210    5.1230 H     2073  UNL2073     0.1146
   8291 H          33.1494   26.2764    5.4195 H     2073  UNL2073     0.1146
   8292 H          31.6951   25.6016    5.1389 H     2073  UNL2073     0.1146
   8293 N          32.0401   26.5191    7.9034 N.3   2074  UNL2074    -0.3437
   8294 H          31.8722   25.5144    7.9337 H     2074  UNL2074     0.1146
   8295 H          32.9539   26.6641    8.3305 H     2074  UNL2074     0.1146
   8296 H          32.1497   26.7559    6.9184 H     2074  UNL2074     0.1146
   8297 N          32.5056   26.3947   10.5643 N.3   2075  UNL2075    -0.3437
   8298 H          31.7313   26.0767   11.1454 H     2075  UNL2075     0.1146
   8299 H          32.5844   25.7180    9.8065 H     2075  UNL2075     0.1146
   8300 H          32.1945   27.2641   10.1332 H     2075  UNL2075     0.1146
   8301 N          32.3881   26.4693   13.2943 N.3   2076  UNL2076    -0.3437
   8302 H          31.7804   25.6770   13.4974 H     2076  UNL2076     0.1146
   8303 H          33.0465   26.1445   12.5877 H     2076  UNL2076     0.1146
   8304 H          31.8008   27.1628   12.8332 H     2076  UNL2076     0.1146
   8305 N          32.0942   26.3142   15.4502 N.3   2077  UNL2077    -0.3437
   8306 H          31.8334   25.7026   16.2225 H     2077  UNL2077     0.1146
   8307 H          31.9960   27.2661   15.8003 H     2077  UNL2077     0.1146
   8308 H          33.0922   26.1707   15.3029 H     2077  UNL2077     0.1146
   8309 N          32.3028   26.1863   18.1032 N.3   2078  UNL2078    -0.3437
   8310 H          31.6441   25.7886   18.7713 H     2078  UNL2078     0.1146
   8311 H          31.9181   27.0906   17.8336 H     2078  UNL2078     0.1146
   8312 H          33.1508   26.3881   18.6311 H     2078  UNL2078     0.1146
   8313 N          32.0792   26.5240   21.1517 N.3   2079  UNL2079    -0.3437
   8314 H          31.5711   25.7987   20.6477 H     2079  UNL2079     0.1146
   8315 H          32.8199   26.0452   21.6621 H     2079  UNL2079     0.1146
   8316 H          32.5457   27.0857   20.4409 H     2079  UNL2079     0.1146
   8317 N          32.2126   26.2768   23.8960 N.3   2080  UNL2080    -0.3437
   8318 H          31.6767   25.7236   23.2288 H     2080  UNL2080     0.1146
   8319 H          33.1856   26.2069   23.6014 H     2080  UNL2080     0.1146
   8320 H          31.9409   27.2463   23.7396 H     2080  UNL2080     0.1146
   8321 N          32.3657   26.2147   26.4870 N.3   2081  UNL2081    -0.3437
   8322 H          31.7396   25.6474   25.9173 H     2081  UNL2081     0.1146
   8323 H          33.0853   26.5609   25.8539 H     2081  UNL2081     0.1146
   8324 H          31.8253   27.0306   26.7709 H     2081  UNL2081     0.1146
   8325 N          32.0829   26.2301   28.6972 N.3   2082  UNL2082    -0.3437
   8326 H          31.8805   25.9286   29.6493 H     2082  UNL2082     0.1146
   8327 H          31.9770   27.2436   28.6950 H     2082  UNL2082     0.1146
   8328 H          33.0754   26.0511   28.5509 H     2082  UNL2082     0.1146
   8329 N          32.3696   26.2867   31.7999 N.3   2083  UNL2083    -0.3437
   8330 H          31.6188   25.6647   31.5035 H     2083  UNL2083     0.1146
   8331 H          33.0558   26.2775   31.0466 H     2083  UNL2083     0.1146
   8332 H          31.9715   27.2247   31.8057 H     2083  UNL2083     0.1146
   8333 N          32.0672   24.5756   34.0931 N.3   2084  UNL2084    -0.3437
   8334 H          31.7518   23.6424   33.8323 H     2084  UNL2084     0.1146
   8335 H          32.1995   24.5552   35.1033 H     2084  UNL2084     0.1146
   8336 H          32.9973   24.6805   33.6903 H     2084  UNL2084     0.1146
   8337 N          32.2989   30.3049   -0.4165 N.3   2085  UNL2085    -0.3437
   8338 H          31.7437   30.8970    0.1995 H     2085  UNL2085     0.1146
   8339 H          33.1670   30.1162    0.0826 H     2085  UNL2085     0.1146
   8340 H          31.8062   29.4145   -0.4695 H     2085  UNL2085     0.1146
   8341 N          32.0622   30.0828    2.2885 N.3   2086  UNL2086    -0.3437
   8342 H          31.6791   30.8378    2.8555 H     2086  UNL2086     0.1146
   8343 H          32.9159   30.4505    1.8709 H     2086  UNL2086     0.1146
   8344 H          32.3586   29.3616    2.9445 H     2086  UNL2086     0.1146
   8345 N          32.0431   30.2952    4.9564 N.3   2087  UNL2087    -0.3437
   8346 H          31.9076   30.5292    5.9388 H     2087  UNL2087     0.1146
   8347 H          32.9745   30.6301    4.7137 H     2087  UNL2087     0.1146
   8348 H          32.0906   29.2782    4.9139 H     2087  UNL2087     0.1146
   8349 N          32.1462   29.0617    8.0185 N.3   2088  UNL2088    -0.3437
   8350 H          32.0372   30.0746    7.9976 H     2088  UNL2088     0.1146
   8351 H          31.6906   28.7127    7.1764 H     2088  UNL2088     0.1146
   8352 H          33.1417   28.8837    7.8935 H     2088  UNL2088     0.1146
   8353 N          32.1476   30.1638   10.1372 N.3   2089  UNL2089    -0.3437
   8354 H          31.5692   30.7439   10.7431 H     2089  UNL2089     0.1146
   8355 H          33.0827   30.5675   10.1709 H     2089  UNL2089     0.1146
   8356 H          32.2163   29.2575   10.5981 H     2089  UNL2089     0.1146
   8357 N          32.0195   30.1036   12.8917 N.3   2090  UNL2090    -0.3437
   8358 H          31.8004   30.8279   13.5742 H     2090  UNL2090     0.1146
   8359 H          32.7815   30.4730   12.3249 H     2090  UNL2090     0.1146
   8360 H          32.4144   29.3282   13.4219 H     2090  UNL2090     0.1146
   8361 N          32.0822   30.0790   15.4771 N.3   2091  UNL2091    -0.3437
   8362 H          31.5464   30.4490   16.2610 H     2091  UNL2091     0.1146
   8363 H          32.6895   30.8372   15.1692 H     2091  UNL2091     0.1146
   8364 H          32.6977   29.3675   15.8686 H     2091  UNL2091     0.1146
   8365 N          32.0568   30.0488   18.1603 N.3   2092  UNL2092    -0.3437
   8366 H          31.6250   30.7010   18.8133 H     2092  UNL2092     0.1146
   8367 H          32.7434   30.5894   17.6361 H     2092  UNL2092     0.1146
   8368 H          32.5906   29.3935   18.7295 H     2092  UNL2092     0.1146
   8369 N          32.1072   30.0514   20.7555 N.3   2093  UNL2093    -0.3437
   8370 H          31.4881   30.4273   21.4722 H     2093  UNL2093     0.1146
   8371 H          32.6761   30.8345   20.4368 H     2093  UNL2093     0.1146
   8372 H          32.7444   29.4194   21.2380 H     2093  UNL2093     0.1146
   8373 N          32.3469   30.3458   23.3878 N.3   2094  UNL2094    -0.3437
   8374 H          31.5631   30.7710   23.8810 H     2094  UNL2094     0.1146
   8375 H          33.0727   30.1986   24.0878 H     2094  UNL2094     0.1146
   8376 H          32.0331   29.4173   23.1092 H     2094  UNL2094     0.1146
   8377 N          32.2818   30.3040   25.9889 N.3   2095  UNL2095    -0.3437
   8378 H          31.6772   30.8462   26.6044 H     2095  UNL2095     0.1146
   8379 H          33.1725   30.2164   26.4760 H     2095  UNL2095     0.1146
   8380 H          31.8843   29.3661   25.9597 H     2095  UNL2095     0.1146
   8381 N          32.0779   30.0828   28.6829 N.3   2096  UNL2096    -0.3437
   8382 H          31.6532   30.8378   29.2195 H     2096  UNL2096     0.1146
   8383 H          32.9606   30.4505   28.3307 H     2096  UNL2096     0.1146
   8384 H          32.3241   29.3616   29.3594 H     2096  UNL2096     0.1146
   8385 N          32.0718   30.2659   31.3213 N.3   2097  UNL2097    -0.3437
   8386 H          31.8416   30.6996   32.2142 H     2097  UNL2097     0.1146
   8387 H          33.0441   30.5068   31.1344 H     2097  UNL2097     0.1146
   8388 H          32.0583   29.2603   31.4858 H     2097  UNL2097     0.1146
   8389 N          32.1046   29.3082   33.9574 N.3   2098  UNL2098    -0.3437
   8390 H          31.9403   29.7697   34.8509 H     2098  UNL2098     0.1146
   8391 H          33.1133   29.3254   33.8137 H     2098  UNL2098     0.1146
   8392 H          31.8576   28.3295   34.0971 H     2098  UNL2098     0.1146
   8393 N          35.6830    1.1649    0.0603 N.3   2099  UNL2099    -0.3437
   8394 H          34.9564    0.8619   -0.5866 H     2099  UNL2099     0.1146
   8395 H          36.0991    0.3131    0.4343 H     2099  UNL2099     0.1146
   8396 H          36.4042    1.6018   -0.5119 H     2099  UNL2099     0.1146
   8397 N          35.6508    1.2178    2.6130 N.3   2100  UNL2100    -0.3437
   8398 H          35.0196    0.6477    2.0517 H     2100  UNL2100     0.1146
   8399 H          36.0596    0.5886    3.3024 H     2100  UNL2100     0.1146
   8400 H          36.4126    1.4875    1.9923 H     2100  UNL2100     0.1146
   8401 N          35.6685   -1.0239    5.4019 N.3   2101  UNL2101    -0.3437
   8402 H          34.9854   -0.7812    4.6859 H     2101  UNL2101     0.1146
   8403 H          36.0711   -1.9152    5.1154 H     2101  UNL2101     0.1146
   8404 H          36.4176   -0.3380    5.3195 H     2101  UNL2101     0.1146
   8405 N          35.6869    0.7840    7.9640 N.3   2102  UNL2102    -0.3437
   8406 H          34.9493    1.1508    7.3641 H     2102  UNL2102     0.1146
   8407 H          36.4004    0.4139    7.3376 H     2102  UNL2102     0.1146
   8408 H          36.1061    1.5930    8.4203 H     2102  UNL2102     0.1146
   8409 N          35.6078    0.8535   10.6081 N.3   2103  UNL2103    -0.3437
   8410 H          35.1389    1.5908   10.0837 H     2103  UNL2103     0.1146
   8411 H          35.9777    0.2064    9.9133 H     2103  UNL2103     0.1146
   8412 H          36.4183    1.2910   11.0441 H     2103  UNL2103     0.1146
   8413 N          35.6824   -0.9759   12.7789 N.3   2104  UNL2104    -0.3437
   8414 H          34.9555   -0.8958   13.4885 H     2104  UNL2104     0.1146
   8415 H          36.3971   -0.2946   13.0308 H     2104  UNL2104     0.1146
   8416 H          36.1076   -1.8920   12.9144 H     2104  UNL2104     0.1146
   8417 N          35.8233    0.8599   15.4290 N.3   2105  UNL2105    -0.3437
   8418 H          34.8410    0.9735   15.6754 H     2105  UNL2105     0.1146
   8419 H          36.2367    1.7894   15.4871 H     2105  UNL2105     0.1146
   8420 H          36.2415    0.3188   16.1845 H     2105  UNL2105     0.1146
   8421 N          35.6908    0.7955   18.1291 N.3   2106  UNL2106    -0.3437
   8422 H          36.4152    0.3998   18.7267 H     2106  UNL2106     0.1146
   8423 H          34.9474    1.1027   18.7546 H     2106  UNL2106     0.1146
   8424 H          36.0893    1.6436   17.7288 H     2106  UNL2106     0.1146
   8425 N          35.7254    1.2140   21.1531 N.3   2107  UNL2107    -0.3437
   8426 H          34.8858    0.7514   20.8075 H     2107  UNL2107     0.1146
   8427 H          36.2748    0.4906   21.6149 H     2107  UNL2107     0.1146
   8428 H          36.2566    1.4856   20.3270 H     2107  UNL2107     0.1146
   8429 N          35.6760    1.1308   23.8493 N.3   2108  UNL2108    -0.3437
   8430 H          34.9695    0.9261   23.1441 H     2108  UNL2108     0.1146
   8431 H          36.0878    0.2339   24.1030 H     2108  UNL2108     0.1146
   8432 H          36.4094    1.6508   23.3694 H     2108  UNL2108     0.1146
   8433 N          35.6358    1.1705   26.4323 N.3   2109  UNL2109    -0.3437
   8434 H          35.0271    0.6180   25.8303 H     2109  UNL2109     0.1146
   8435 H          36.1968    0.5000   26.9560 H     2109  UNL2109     0.1146
   8436 H          36.2830    1.6531   25.8105 H     2109  UNL2109     0.1146
   8437 N          35.7154    1.1170   29.1533 N.3   2110  UNL2110    -0.3437
   8438 H          34.8987    0.7783   28.6468 H     2110  UNL2110     0.1146
   8439 H          36.3222    0.3083   29.2807 H     2110  UNL2110     0.1146
   8440 H          36.2062    1.7380   28.5116 H     2110  UNL2110     0.1146
   8441 N          35.6447    0.7609   31.6698 N.3   2111  UNL2111    -0.3437
   8442 H          35.0331    1.3158   31.0728 H     2111  UNL2111     0.1146
   8443 H          36.4124    0.4516   31.0752 H     2111  UNL2111     0.1146
   8444 H          36.0524    1.4133   32.3380 H     2111  UNL2111     0.1146
   8445 N          35.8613    0.7864   34.9747 N.3   2112  UNL2112    -0.3437
   8446 H          35.9759    0.4362   35.9247 H     2112  UNL2112     0.1146
   8447 H          34.8884    1.0801   34.8990 H     2112  UNL2112     0.1146
   8448 H          36.4170    1.6389   34.9206 H     2112  UNL2112     0.1146
   8449 N          35.7868    3.9511   -0.3638 N.3   2113  UNL2113    -0.3437
   8450 H          35.1486    3.2470   -0.7315 H     2113  UNL2113     0.1146
   8451 H          35.2213    4.5645    0.2214 H     2113  UNL2113     0.1146
   8452 H          36.4140    3.4581    0.2701 H     2113  UNL2113     0.1146
   8453 N          35.9701    3.9316    2.6831 N.3   2114  UNL2114    -0.3437
   8454 H          35.5918    4.5944    2.0079 H     2114  UNL2114     0.1146
   8455 H          35.1649    3.4981    3.1326 H     2114  UNL2114     0.1146
   8456 H          36.4157    3.1966    2.1358 H     2114  UNL2114     0.1146
   8457 N          35.6296    2.0187    5.2627 N.3   2115  UNL2115    -0.3437
   8458 H          35.0630    1.2056    5.0258 H     2115  UNL2115     0.1146
   8459 H          36.3913    1.6708    5.8433 H     2115  UNL2115     0.1146
   8460 H          36.0587    2.3257    4.3909 H     2115  UNL2115     0.1146
   8461 N          35.7663    3.9504    7.5457 N.3   2116  UNL2116    -0.3437
   8462 H          35.4104    3.0340    7.2774 H     2116  UNL2116     0.1146
   8463 H          34.9765    4.4508    7.9509 H     2116  UNL2116     0.1146
   8464 H          36.4173    3.7855    8.3121 H     2116  UNL2116     0.1146
   8465 N          35.9652    3.9637   10.5856 N.3   2117  UNL2117    -0.3437
   8466 H          35.6225    4.4924    9.7848 H     2117  UNL2117     0.1146
   8467 H          35.1373    3.6296   11.0768 H     2117  UNL2117     0.1146
   8468 H          36.4177    3.1350   10.2022 H     2117  UNL2117     0.1146
   8469 N          35.5993    1.9977   13.1780 N.3   2118  UNL2118    -0.3437
   8470 H          35.1611    1.1005   12.9747 H     2118  UNL2118     0.1146
   8471 H          36.4046    1.7900   13.7669 H     2118  UNL2118     0.1146
   8472 H          35.9775    2.3325   12.2930 H     2118  UNL2118     0.1146
   8473 N          35.9853    3.9566   15.5372 N.3   2119  UNL2119    -0.3437
   8474 H          35.4645    3.2881   14.9713 H     2119  UNL2119     0.1146
   8475 H          35.2882    4.5582   15.9738 H     2119  UNL2119     0.1146
   8476 H          36.4046    3.4178   16.2936 H     2119  UNL2119     0.1146
   8477 N          35.6526    3.9053   18.5790 N.3   2120  UNL2120    -0.3437
   8478 H          36.3934    3.2353   18.7805 H     2120  UNL2120     0.1146
   8479 H          36.0868    4.6486   18.0337 H     2120  UNL2120     0.1146
   8480 H          35.0098    3.4315   17.9460 H     2120  UNL2120     0.1146
   8481 N          35.7680    3.9353   21.2096 N.3   2121  UNL2121    -0.3437
   8482 H          34.9763    3.3462   21.4636 H     2121  UNL2121     0.1146
   8483 H          36.4138    3.3337   20.7002 H     2121  UNL2121     0.1146
   8484 H          35.4125    4.6055   20.5292 H     2121  UNL2121     0.1146
   8485 N          35.9755    3.8855   23.8283 N.3   2122  UNL2122    -0.3437
   8486 H          35.5389    4.6827   23.3677 H     2122  UNL2122     0.1146
   8487 H          35.2110    3.3115   24.1811 H     2122  UNL2122     0.1146
   8488 H          36.4172    3.3411   23.0887 H     2122  UNL2122     0.1146
   8489 N          35.6888    3.9985   26.4588 N.3   2123  UNL2123    -0.3437
   8490 H          36.2063    3.2242   26.8723 H     2123  UNL2123     0.1146
   8491 H          36.3151    4.4219   25.7755 H     2123  UNL2123     0.1146
   8492 H          34.9323    3.5761   25.9225 H     2123  UNL2123     0.1146
   8493 N          35.6667    3.9466   29.1288 N.3   2124  UNL2124    -0.3437
   8494 H          36.4163    3.3116   29.3996 H     2124  UNL2124     0.1146
   8495 H          36.0712    4.5823   28.4427 H     2124  UNL2124     0.1146
   8496 H          34.9885    3.3802   28.6213 H     2124  UNL2124     0.1146
   8497 N          35.6483    3.6522   31.7513 N.3   2125  UNL2125    -0.3437
   8498 H          35.0052    4.2000   31.1816 H     2125  UNL2125     0.1146
   8499 H          36.1590    3.0548   31.1028 H     2125  UNL2125     0.1146
   8500 H          36.3301    4.3137   32.1200 H     2125  UNL2125     0.1146
   8501 N          35.6144    4.0320   35.0984 N.3   2126  UNL2126    -0.3437
   8502 H          35.0790    3.1945   35.3228 H     2126  UNL2126     0.1146
   8503 H          36.1741    4.2374   35.9248 H     2126  UNL2126     0.1146
   8504 H          36.2751    3.7569   34.3730 H     2126  UNL2126     0.1146
   8505 N          35.5734    6.5085    0.0187 N.3   2127  UNL2127    -0.3437
   8506 H          35.2823    6.6273   -0.9506 H     2127  UNL2127     0.1146
   8507 H          36.4150    5.9346   -0.0091 H     2127  UNL2127     0.1146
   8508 H          35.8719    7.4293    0.3372 H     2127  UNL2127     0.1146
   8509 N          35.6979    6.8215    2.2873 N.3   2128  UNL2128    -0.3437
   8510 H          34.9379    6.2267    2.6141 H     2128  UNL2128     0.1146
   8511 H          36.0886    7.2609    3.1196 H     2128  UNL2128     0.1146
   8512 H          36.4182    6.1907    1.9384 H     2128  UNL2128     0.1146
   8513 N          35.6061    4.4452    5.2818 N.3   2129  UNL2129    -0.3437
   8514 H          35.1388    4.9036    4.5008 H     2129  UNL2129     0.1146
   8515 H          36.4072    3.9579    4.8828 H     2129  UNL2129     0.1146
   8516 H          35.9905    5.1932    5.8573 H     2129  UNL2129     0.1146
   8517 N          35.6649    6.4552    7.5618 N.3   2130  UNL2130    -0.3437
   8518 H          34.9873    7.0710    8.0091 H     2130  UNL2130     0.1146
   8519 H          36.4011    7.0614    7.2027 H     2130  UNL2130     0.1146
   8520 H          36.0893    5.9122    8.3124 H     2130  UNL2130     0.1146
   8521 N          35.9849    6.4142   10.3553 N.3   2131  UNL2131    -0.3437
   8522 H          35.5424    6.3021   11.2663 H     2131  UNL2131     0.1146
   8523 H          35.2264    6.4339    9.6751 H     2131  UNL2131     0.1146
   8524 H          36.3889    7.3497   10.3525 H     2131  UNL2131     0.1146
   8525 N          35.6034    4.4475   13.2038 N.3   2132  UNL2132    -0.3437
   8526 H          35.1300    4.9591   12.4605 H     2132  UNL2132     0.1146
   8527 H          36.3653    3.9409   12.7549 H     2132  UNL2132     0.1146
   8528 H          36.0439    5.1523   13.7934 H     2132  UNL2132     0.1146
   8529 N          35.8933    6.5963   15.9678 N.3   2133  UNL2133    -0.3437
   8530 H          34.9199    6.3038   15.8943 H     2133  UNL2133     0.1146
   8531 H          36.4055    6.0423   15.2828 H     2133  UNL2133     0.1146
   8532 H          35.9239    7.5575   15.6310 H     2133  UNL2133     0.1146
   8533 N          34.8381    6.4455   18.5638 N.3   2134  UNL2134    -0.3437
   8534 H          35.6907    6.7352   18.0868 H     2134  UNL2134     0.1146
   8535 H          34.3633    7.3048   18.8370 H     2134  UNL2134     0.1146
   8536 H          34.2505    6.0143   17.8516 H     2134  UNL2134     0.1146
   8537 N          35.7935    6.5400   20.6926 N.3   2135  UNL2135    -0.3437
   8538 H          36.0674    7.5133   20.8197 H     2135  UNL2135     0.1146
   8539 H          36.4162    5.9932   21.2856 H     2135  UNL2135     0.1146
   8540 H          34.8655    6.4533   21.1046 H     2135  UNL2135     0.1146
   8541 N          35.6427    6.7926   23.4194 N.3   2136  UNL2136    -0.3437
   8542 H          35.0157    6.1979   23.9592 H     2136  UNL2136     0.1146
   8543 H          36.1640    7.3427   24.1007 H     2136  UNL2136     0.1146
   8544 H          36.3202    6.1666   22.9865 H     2136  UNL2136     0.1146
   8545 N          35.9651    6.8180   26.3911 N.3   2137  UNL2137    -0.3437
   8546 H          35.1349    7.2591   25.9980 H     2137  UNL2137     0.1146
   8547 H          35.6260    6.0926   27.0214 H     2137  UNL2137     0.1146
   8548 H          36.4165    6.3302   25.6186 H     2137  UNL2137     0.1146
   8549 N          35.7351    6.8005   29.1305 N.3   2138  UNL2138    -0.3437
   8550 H          34.8930    6.3308   28.8010 H     2138  UNL2138     0.1146
   8551 H          36.4076    6.0621   29.3330 H     2138  UNL2138     0.1146
   8552 H          36.1068    7.3065   28.3279 H     2138  UNL2138     0.1146
   8553 N          35.6620    6.4168   31.7085 N.3   2139  UNL2139    -0.3437
   8554 H          34.9885    6.8818   31.1014 H     2139  UNL2139     0.1146
   8555 H          36.3853    6.0462   31.0937 H     2139  UNL2139     0.1146
   8556 H          36.1068    7.1551   32.2521 H     2139  UNL2139     0.1146
   8557 N          35.6271    6.3883   35.1010 N.3   2140  UNL2140    -0.3437
   8558 H          35.0752    7.0836   35.6013 H     2140  UNL2140     0.1146
   8559 H          36.0336    6.8737   34.3026 H     2140  UNL2140     0.1146
   8560 H          36.4067    6.1543   35.7141 H     2140  UNL2140     0.1146
   8561 N          35.7529    9.2781    0.0910 N.3   2141  UNL2141    -0.3437
   8562 H          34.8797    9.7054   -0.2143 H     2141  UNL2141     0.1146
   8563 H          36.1012    8.7495   -0.7076 H     2141  UNL2141     0.1146
   8564 H          36.4088   10.0460    0.2270 H     2141  UNL2141     0.1146
   8565 N          35.6181    9.6711    2.5796 N.3   2142  UNL2142    -0.3437
   8566 H          35.1021    8.9993    2.0132 H     2142  UNL2142     0.1146
   8567 H          36.0122    9.1406    3.3553 H     2142  UNL2142     0.1146
   8568 H          36.4102    9.9679    2.0113 H     2142  UNL2142     0.1146
   8569 N          35.6692    7.3529    5.3863 N.3   2143  UNL2143    -0.3437
   8570 H          34.9617    7.6419    4.7123 H     2143  UNL2143     0.1146
   8571 H          36.2208    6.6322    4.9229 H     2143  UNL2143     0.1146
   8572 H          36.2909    8.1520    5.5011 H     2143  UNL2143     0.1146
   8573 N          35.7225    9.2489    7.9837 N.3   2144  UNL2144    -0.3437
   8574 H          34.8893    9.6725    7.5779 H     2144  UNL2144     0.1146
   8575 H          36.2348    8.8357    7.2058 H     2144  UNL2144     0.1146
   8576 H          36.2959   10.0219    8.3186 H     2144  UNL2144     0.1146
   8577 N          35.6266    9.6625   10.5333 N.3   2145  UNL2145    -0.3437
   8578 H          35.0756    9.0687    9.9151 H     2145  UNL2145     0.1146
   8579 H          36.0364    9.0404   11.2287 H     2145  UNL2145     0.1146
   8580 H          36.4041   10.0074    9.9722 H     2145  UNL2145     0.1146
   8581 N          35.7597    7.1521   13.0202 N.3   2146  UNL2146    -0.3437
   8582 H          34.8593    7.6292   13.0275 H     2146  UNL2146     0.1146
   8583 H          36.3016    7.5864   12.2744 H     2146  UNL2146     0.1146
   8584 H          36.2220    7.4112   13.8906 H     2146  UNL2146     0.1146
   8585 N          35.9419    9.6888   15.6360 N.3   2147  UNL2147    -0.3437
   8586 H          34.9797    9.8913   15.9035 H     2147  UNL2147     0.1146
   8587 H          36.3361    9.1404   16.3990 H     2147  UNL2147     0.1146
   8588 H          35.8848    9.0584   14.8374 H     2147  UNL2147     0.1146
   8589 N          35.7014    9.5908   18.5775 N.3   2148  UNL2148    -0.3437
   8590 H          34.9326    9.4278   17.9289 H     2148  UNL2148     0.1146
   8591 H          36.0927    8.6733   18.7857 H     2148  UNL2148     0.1146
   8592 H          36.4160   10.0871   18.0471 H     2148  UNL2148     0.1146
   8593 N          35.6470    9.6639   21.1176 N.3   2149  UNL2149    -0.3437
   8594 H          35.0207    9.1182   20.5273 H     2149  UNL2149     0.1146
   8595 H          36.0855    8.9983   21.7525 H     2149  UNL2149     0.1146
   8596 H          36.3895    9.9986   20.5051 H     2149  UNL2149     0.1146
   8597 N          35.6622    9.6419   23.7989 N.3   2150  UNL2150    -0.3437
   8598 H          34.9832    8.9955   23.3995 H     2150  UNL2150     0.1146
   8599 H          36.3633    9.0635   24.2597 H     2150  UNL2150     0.1146
   8600 H          36.1338   10.0780   23.0078 H     2150  UNL2150     0.1146
   8601 N          35.7299    9.2835   26.0159 N.3   2151  UNL2151    -0.3437
   8602 H          34.8997    9.4401   26.5856 H     2151  UNL2151     0.1146
   8603 H          36.0982   10.2079   25.7962 H     2151  UNL2151     0.1146
   8604 H          36.4148    8.8474   26.6315 H     2151  UNL2151     0.1146
   8605 N          35.9367    9.2090   28.8033 N.3   2152  UNL2152    -0.3437
   8606 H          35.0094    8.9691   29.1511 H     2152  UNL2152     0.1146
   8607 H          35.7914    9.9040   28.0724 H     2152  UNL2152     0.1146
   8608 H          36.4050    9.6968   29.5656 H     2152  UNL2152     0.1146
   8609 N          35.6474    9.2866   31.7469 N.3   2153  UNL2153    -0.3437
   8610 H          35.0174    9.9057   31.2388 H     2153  UNL2153     0.1146
   8611 H          36.0971    8.7037   31.0423 H     2153  UNL2153     0.1146
   8612 H          36.3807    9.8830   32.1276 H     2153  UNL2153     0.1146
   8613 N          35.7880    9.1518   35.1404 N.3   2154  UNL2154    -0.3437
   8614 H          36.3731    9.4494   35.9198 H     2154  UNL2154     0.1146
   8615 H          34.8561    9.5161   35.3336 H     2154  UNL2154     0.1146
   8616 H          36.1253    9.6617   34.3252 H     2154  UNL2154     0.1146
   8617 N          35.7776   12.0591    0.0615 N.3   2155  UNL2155    -0.3437
   8618 H          34.8681   12.4860   -0.1087 H     2155  UNL2155     0.1146
   8619 H          36.0852   11.6864   -0.8357 H     2155  UNL2155     0.1146
   8620 H          36.4117   12.8265    0.2790 H     2155  UNL2155     0.1146
   8621 N          35.6480   12.3679    2.2495 N.3   2156  UNL2156    -0.3437
   8622 H          35.0273   11.8428    2.8638 H     2156  UNL2156     0.1146
   8623 H          36.0499   13.1084    2.8227 H     2156  UNL2156     0.1146
   8624 H          36.4173   11.7390    2.0234 H     2156  UNL2156     0.1146
   8625 N          35.6366   10.4875    5.2550 N.3   2157  UNL2157    -0.3437
   8626 H          35.0299    9.7233    4.9614 H     2157  UNL2157     0.1146
   8627 H          36.3246   10.0746    5.8832 H     2157  UNL2157     0.1146
   8628 H          36.1515   10.7727    4.4231 H     2157  UNL2157     0.1146
   8629 N          35.6945   12.0475    7.9503 N.3   2158  UNL2158    -0.3437
   8630 H          34.9227   12.5395    7.5025 H     2158  UNL2158     0.1146
   8631 H          36.2897   11.7116    7.1945 H     2158  UNL2158     0.1146
   8632 H          36.2358   12.7594    8.4387 H     2158  UNL2158     0.1146
   8633 N          35.7018   12.0481   10.5954 N.3   2159  UNL2159    -0.3437
   8634 H          34.9307   12.4144   10.0390 H     2159  UNL2159     0.1146
   8635 H          36.4113   11.7475    9.9286 H     2159  UNL2159     0.1146
   8636 H          36.0988   12.8480   11.0863 H     2159  UNL2159     0.1146
   8637 N          35.5448   10.3445   13.2047 N.3   2160  UNL2160    -0.3437
   8638 H          35.5948    9.3392   13.0458 H     2160  UNL2160     0.1146
   8639 H          36.4106   10.5973   13.6789 H     2160  UNL2160     0.1146
   8640 H          35.5925   10.7771   12.2833 H     2160  UNL2160     0.1146
   8641 N          35.7412   12.0891   15.4602 N.3   2161  UNL2161    -0.3437
   8642 H          34.8718   12.3867   15.9008 H     2161  UNL2161     0.1146
   8643 H          36.2422   12.9439   15.2220 H     2161  UNL2161     0.1146
   8644 H          36.2874   11.6384   16.1929 H     2161  UNL2161     0.1146
   8645 N          35.8583   12.0818   18.1141 N.3   2162  UNL2162    -0.3437
   8646 H          36.0062   11.6676   19.0333 H     2162  UNL2162     0.1146
   8647 H          34.8792   12.3630   18.0869 H     2162  UNL2162     0.1146
   8648 H          36.3989   12.9456   18.1050 H     2162  UNL2162     0.1146
   8649 N          35.7447   12.4790   21.1749 N.3   2163  UNL2163    -0.3437
   8650 H          34.8686   12.0977   20.8207 H     2163  UNL2163     0.1146
   8651 H          36.2647   11.6868   21.5496 H     2163  UNL2163     0.1146
   8652 H          36.2645   12.7946   20.3573 H     2163  UNL2163     0.1146
   8653 N          35.6467   12.1343   23.3904 N.3   2164  UNL2164    -0.3437
   8654 H          35.0274   12.3238   24.1771 H     2164  UNL2164     0.1146
   8655 H          36.0597   13.0305   23.1359 H     2164  UNL2164     0.1146
   8656 H          36.4088   11.5695   23.7625 H     2164  UNL2164     0.1146
   8657 N          35.7464   12.4918   26.4421 N.3   2165  UNL2165    -0.3437
   8658 H          34.8832   11.9847   26.2522 H     2165  UNL2165     0.1146
   8659 H          36.4047   11.8014   26.8005 H     2165  UNL2165     0.1146
   8660 H          36.1083   12.7801   25.5342 H     2165  UNL2165     0.1146
   8661 N          35.6450   12.0679   29.0682 N.3   2166  UNL2166    -0.3437
   8662 H          35.0294   12.5135   28.3893 H     2166  UNL2166     0.1146
   8663 H          36.4031   11.6517   28.5293 H     2166  UNL2166     0.1146
   8664 H          36.0651   12.8249   29.6056 H     2166  UNL2166     0.1146
   8665 N          35.7408   12.1204   31.7931 N.3   2167  UNL2167    -0.3437
   8666 H          34.8730   12.3410   31.3066 H     2167  UNL2167     0.1146
   8667 H          36.3056   11.5882   31.1327 H     2167  UNL2167     0.1146
   8668 H          36.2233   13.0084   31.9234 H     2167  UNL2167     0.1146
   8669 N          35.5672   12.0798   35.1055 N.3   2168  UNL2168    -0.3437
   8670 H          36.4178   11.5925   35.3837 H     2168  UNL2168     0.1146
   8671 H          35.3224   12.6860   35.8872 H     2168  UNL2168     0.1146
   8672 H          35.8352   12.6997   34.3426 H     2168  UNL2168     0.1146
   8673 N          35.9862   15.2411   -0.3012 N.3   2169  UNL2169    -0.3437
   8674 H          35.3957   14.6729   -0.9069 H     2169  UNL2169     0.1146
   8675 H          35.3520   15.8274    0.2396 H     2169  UNL2169     0.1146
   8676 H          36.4087   14.5958    0.3647 H     2169  UNL2169     0.1146
   8677 N          35.6349   15.3253    2.5709 N.3   2170  UNL2170    -0.3437
   8678 H          35.0522   14.6372    2.0961 H     2170  UNL2170     0.1146
   8679 H          36.0559   14.8393    3.3615 H     2170  UNL2170     0.1146
   8680 H          36.3996   15.5353    1.9309 H     2170  UNL2170     0.1146
   8681 N          35.7952   12.9282    5.3815 N.3   2171  UNL2171    -0.3437
   8682 H          34.8633   12.9567    4.9702 H     2171  UNL2171     0.1146
   8683 H          36.4092   12.5529    4.6600 H     2171  UNL2171     0.1146
   8684 H          36.0749   13.8994    5.5110 H     2171  UNL2171     0.1146
   8685 N          35.6168   14.9469    7.9715 N.3   2172  UNL2172    -0.3437
   8686 H          35.1037   15.6455    7.4359 H     2172  UNL2172     0.1146
   8687 H          36.0174   14.3069    7.2871 H     2172  UNL2172     0.1146
   8688 H          36.4047   15.4379    8.3916 H     2172  UNL2172     0.1146
   8689 N          35.5622   14.9985   10.2389 N.3   2173  UNL2173    -0.3437
   8690 H          35.3393   14.9315   11.2310 H     2173  UNL2173     0.1146
   8691 H          35.8371   15.9663   10.0775 H     2173  UNL2173     0.1146
   8692 H          36.4040   14.4409   10.1019 H     2173  UNL2173     0.1146
   8693 N          35.6296   12.9582   13.2702 N.3   2174  UNL2174    -0.3437
   8694 H          35.0402   13.3461   12.5350 H     2174  UNL2174     0.1146
   8695 H          36.2614   12.3054   12.8086 H     2174  UNL2174     0.1146
   8696 H          36.2115   13.7274   13.5988 H     2174  UNL2174     0.1146
   8697 N          35.6609   15.2689   15.4998 N.3   2175  UNL2175    -0.3437
   8698 H          34.9982   14.6001   15.8895 H     2175  UNL2175     0.1146
   8699 H          36.0721   15.7536   16.2963 H     2175  UNL2175     0.1146
   8700 H          36.4115   14.7145   15.0903 H     2175  UNL2175     0.1146
   8701 N          35.6905   15.3177   18.1804 N.3   2176  UNL2176    -0.3437
   8702 H          34.9483   14.8709   18.7170 H     2176  UNL2176     0.1146
   8703 H          36.4168   15.5596   18.8530 H     2176  UNL2176     0.1146
   8704 H          36.0871   14.5889   17.5888 H     2176  UNL2176     0.1146
   8705 N          35.6422   14.9790   20.7396 N.3   2177  UNL2177    -0.3437
   8706 H          35.0367   15.0892   21.5517 H     2177  UNL2177     0.1146
   8707 H          36.0576   15.8945   20.5727 H     2177  UNL2177     0.1146
   8708 H          36.4060   14.3744   21.0386 H     2177  UNL2177     0.1146
   8709 N          35.7587   15.3180   23.7954 N.3   2178  UNL2178    -0.3437
   8710 H          34.8781   14.8245   23.6564 H     2178  UNL2178     0.1146
   8711 H          36.4165   14.6248   24.1491 H     2178  UNL2178     0.1146
   8712 H          36.0894   15.5698   22.8650 H     2178  UNL2178     0.1146
   8713 N          35.7327   14.9163   26.0199 N.3   2179  UNL2179    -0.3437
   8714 H          34.8978   15.0808   26.5805 H     2179  UNL2179     0.1146
   8715 H          36.0946   15.8376   25.7779 H     2179  UNL2179     0.1146
   8716 H          36.4176   14.5024   26.6508 H     2179  UNL2179     0.1146
   8717 N          35.7284   15.2293   28.6470 N.3   2180  UNL2180    -0.3437
   8718 H          34.8993   15.1003   29.2252 H     2180  UNL2180     0.1146
   8719 H          36.4081   15.7108   29.2340 H     2180  UNL2180     0.1146
   8720 H          36.1067   14.2968   28.4863 H     2180  UNL2180     0.1146
   8721 N          35.6611   15.3242   31.4193 N.3   2181  UNL2181    -0.3437
   8722 H          34.9928   14.5720   31.5806 H     2181  UNL2181     0.1146
   8723 H          36.0942   15.5135   32.3221 H     2181  UNL2181     0.1146
   8724 H          36.3946   14.9275   30.8337 H     2181  UNL2181     0.1146
   8725 N          35.5474   14.9244   35.2507 N.3   2182  UNL2182    -0.3437
   8726 H          36.4086   14.3803   35.2748 H     2182  UNL2182     0.1146
   8727 H          35.6951   15.7121   35.8800 H     2182  UNL2182     0.1146
   8728 H          35.4914   15.3204   34.3135 H     2182  UNL2182     0.1146
   8729 N          35.7938   17.8448   -0.4404 N.3   2183  UNL2183    -0.3437
   8730 H          34.8637   17.7290   -0.0407 H     2183  UNL2183     0.1146
   8731 H          36.0749   18.8005   -0.2255 H     2183  UNL2183     0.1146
   8732 H          36.4101   17.2420    0.1028 H     2183  UNL2183     0.1146
   8733 N          35.6165   17.7084    2.3468 N.3   2184  UNL2184    -0.3437
   8734 H          36.0026   18.4213    1.7295 H     2184  UNL2184     0.1146
   8735 H          36.4144   17.2754    2.8096 H     2184  UNL2184     0.1146
   8736 H          35.1091   18.2111    3.0736 H     2184  UNL2184     0.1146
   8737 N          35.6395   16.1151    5.2772 N.3   2185  UNL2185    -0.3437
   8738 H          35.0359   15.3476    4.9856 H     2185  UNL2185     0.1146
   8739 H          36.3828   15.6928    5.8318 H     2185  UNL2185     0.1146
   8740 H          36.0844   16.4607    4.4281 H     2185  UNL2185     0.1146
   8741 N          35.6502   17.7139    7.5902 N.3   2186  UNL2186    -0.3437
   8742 H          35.0194   18.4243    7.9585 H     2186  UNL2186     0.1146
   8743 H          36.4086   18.2202    7.1353 H     2186  UNL2186     0.1146
   8744 H          36.0643   17.2579    8.4020 H     2186  UNL2186     0.1146
   8745 N          35.7073   18.1338   10.5811 N.3   2187  UNL2187    -0.3437
   8746 H          34.9069   17.6568   10.1686 H     2187  UNL2187     0.1146
   8747 H          36.2225   17.4224   11.0979 H     2187  UNL2187     0.1146
   8748 H          36.3059   18.4032    9.8017 H     2187  UNL2187     0.1146
   8749 N          35.6471   15.6901   13.2027 N.3   2188  UNL2188    -0.3437
   8750 H          35.0148   16.2360   12.6192 H     2188  UNL2188     0.1146
   8751 H          36.3670   15.3311   12.5772 H     2188  UNL2188     0.1146
   8752 H          36.1138   16.3591   13.8134 H     2188  UNL2188     0.1146
   8753 N          35.9779   18.0871   15.5639 N.3   2189  UNL2189    -0.3437
   8754 H          35.5201   17.4614   14.9026 H     2189  UNL2189     0.1146
   8755 H          35.2292   18.5808   16.0478 H     2189  UNL2189     0.1146
   8756 H          36.4154   17.4870   16.2617 H     2189  UNL2189     0.1146
   8757 N          35.7185   17.6882   18.1443 N.3   2190  UNL2190    -0.3437
   8758 H          34.9077   18.0217   18.6637 H     2190  UNL2190     0.1146
   8759 H          36.1158   18.5078   17.6873 H     2190  UNL2190     0.1146
   8760 H          36.4005   17.3985   18.8438 H     2190  UNL2190     0.1146
   8761 N          35.7029   18.1251   21.1535 N.3   2191  UNL2191    -0.3437
   8762 H          34.9116   17.6445   20.7278 H     2191  UNL2191     0.1146
   8763 H          36.2389   17.4077   21.6397 H     2191  UNL2191     0.1146
   8764 H          36.2893   18.4390   20.3815 H     2191  UNL2191     0.1146
   8765 N          35.6222   17.7684   23.4109 N.3   2192  UNL2192    -0.3437
   8766 H          35.0896   18.0000   24.2482 H     2192  UNL2192     0.1146
   8767 H          36.0221   18.6456   23.0808 H     2192  UNL2192     0.1146
   8768 H          36.4087   17.2022   23.7259 H     2192  UNL2192     0.1146
   8769 N          35.7182   18.1298   26.4358 N.3   2193  UNL2193    -0.3437
   8770 H          34.8935   17.6760   26.0454 H     2193  UNL2193     0.1146
   8771 H          36.2446   17.3967   26.9090 H     2193  UNL2193     0.1146
   8772 H          36.2863   18.4138   25.6390 H     2193  UNL2193     0.1146
   8773 N          35.6375   18.1219   29.0321 N.3   2194  UNL2194    -0.3437
   8774 H          35.0458   17.5605   28.4213 H     2194  UNL2194     0.1146
   8775 H          36.0602   17.4695   29.6909 H     2194  UNL2194     0.1146
   8776 H          36.3991   18.4643   28.4481 H     2194  UNL2194     0.1146
   8777 N          35.7031   18.0378   31.7893 N.3   2195  UNL2195    -0.3437
   8778 H          34.9305   17.5663   31.3211 H     2195  UNL2195     0.1146
   8779 H          36.4169   17.3262   31.9393 H     2195  UNL2195     0.1146
   8780 H          36.0921   18.6860   31.1060 H     2195  UNL2195     0.1146
   8781 N          35.8316   18.1408   35.0088 N.3   2196  UNL2196    -0.3437
   8782 H          36.1471   17.2742   34.5753 H     2196  UNL2196     0.1146
   8783 H          34.8472   18.0011   35.2320 H     2196  UNL2196     0.1146
   8784 H          36.3167   18.2003   35.9030 H     2196  UNL2196     0.1146
   8785 N          34.7024   20.9222   -0.3537 N.3   2197  UNL2197    -0.3437
   8786 H          34.3415   21.1332    0.5756 H     2197  UNL2197     0.1146
   8787 H          35.7148   20.8609   -0.2545 H     2197  UNL2197     0.1146
   8788 H          34.3840   19.9790   -0.5713 H     2197  UNL2197     0.1146
   8789 N          35.6731   20.4870    2.3534 N.3   2198  UNL2198    -0.3437
   8790 H          36.2863   21.0344    1.7511 H     2198  UNL2198     0.1146
   8791 H          36.2283   20.2433    3.1724 H     2198  UNL2198     0.1146
   8792 H          34.9549   21.1307    2.6825 H     2198  UNL2198     0.1146
   8793 N          35.8412   18.4945    5.3088 N.3   2199  UNL2199    -0.3437
   8794 H          34.8706   18.5279    5.0002 H     2199  UNL2199     0.1146
   8795 H          36.4053   18.4802    4.4603 H     2199  UNL2199     0.1146
   8796 H          36.0256   19.3927    5.7534 H     2199  UNL2199     0.1146
   8797 N          35.6470   20.6064    8.0047 N.3   2200  UNL2200    -0.3437
   8798 H          35.0019   20.9517    7.2955 H     2200  UNL2200     0.1146
   8799 H          36.2549   19.9399    7.5308 H     2200  UNL2200     0.1146
   8800 H          36.2388   21.3973    8.2550 H     2200  UNL2200     0.1146
   8801 N          35.7005   20.9276   10.2159 N.3   2201  UNL2201    -0.3437
   8802 H          34.9297   20.3435   10.5368 H     2201  UNL2201     0.1146
   8803 H          36.1116   21.3357   11.0543 H     2201  UNL2201     0.1146
   8804 H          36.4007   20.2884    9.8424 H     2201  UNL2201     0.1146
   8805 N          35.5867   18.5492   13.1846 N.3   2202  UNL2202    -0.3437
   8806 H          35.1875   19.0997   12.4257 H     2202  UNL2202     0.1146
   8807 H          36.3607   18.0272   12.7760 H     2202  UNL2202     0.1146
   8808 H          36.0078   19.2194   13.8264 H     2202  UNL2202     0.1146
   8809 N          35.6910   20.7848   15.4207 N.3   2203  UNL2203    -0.3437
   8810 H          34.9478   20.4423   16.0279 H     2203  UNL2203     0.1146
   8811 H          36.0862   21.5976   15.8915 H     2203  UNL2203     0.1146
   8812 H          36.4177   20.0707   15.4359 H     2203  UNL2203     0.1146
   8813 N          35.5603   20.6718   18.1507 N.3   2204  UNL2204    -0.3437
   8814 H          36.4181   20.9241   17.6620 H     2204  UNL2204     0.1146
   8815 H          35.7926   19.8645   18.7275 H     2204  UNL2204     0.1146
   8816 H          35.3716   21.4350   18.7990 H     2204  UNL2204     0.1146
   8817 N          35.7402   20.4829   21.1407 N.3   2205  UNL2205    -0.3437
   8818 H          34.8895   20.8195   20.6919 H     2205  UNL2205     0.1146
   8819 H          36.4106   20.3254   20.3895 H     2205  UNL2205     0.1146
   8820 H          36.1024   21.2676   21.6804 H     2205  UNL2205     0.1146
   8821 N          34.7270   20.5228   23.8251 N.3   2206  UNL2206    -0.3437
   8822 H          35.7260   20.6767   23.6958 H     2206  UNL2206     0.1146
   8823 H          34.3269   21.4363   24.0345 H     2206  UNL2206     0.1146
   8824 H          34.3627   20.2596   22.9105 H     2206  UNL2206     0.1146
   8825 N          35.6331   20.8581   26.0427 N.3   2207  UNL2207    -0.3437
   8826 H          36.0285   21.5141   26.7148 H     2207  UNL2207     0.1146
   8827 H          36.4174   20.3133   25.6871 H     2207  UNL2207     0.1146
   8828 H          35.0636   20.2098   26.5846 H     2207  UNL2207     0.1146
   8829 N          35.5892   20.8673   28.7302 N.3   2208  UNL2208    -0.3437
   8830 H          35.1500   20.2306   29.3935 H     2208  UNL2208     0.1146
   8831 H          36.1672   21.4966   29.2854 H     2208  UNL2208     0.1146
   8832 H          36.2361   20.3008   28.1834 H     2208  UNL2208     0.1146
   8833 N          35.6868   20.9882   31.4512 N.3   2209  UNL2209    -0.3437
   8834 H          34.9533   20.2813   31.4751 H     2209  UNL2209     0.1146
   8835 H          36.0881   21.0084   32.3876 H     2209  UNL2209     0.1146
   8836 H          36.4145   20.6174   30.8418 H     2209  UNL2209     0.1146
   8837 N          35.6876   20.4778   35.0485 N.3   2210  UNL2210    -0.3437
   8838 H          36.2628   20.2851   35.8672 H     2210  UNL2210     0.1146
   8839 H          34.9319   21.0803   35.3717 H     2210  UNL2210     0.1146
   8840 H          36.2603   21.0522   34.4317 H     2210  UNL2210     0.1146
   8841 N          35.7624   23.4925   -0.4412 N.3   2211  UNL2211    -0.3437
   8842 H          34.8582   23.6274    0.0090 H     2211  UNL2211     0.1146
   8843 H          36.3083   24.3267   -0.2305 H     2211  UNL2211     0.1146
   8844 H          36.2137   22.7278    0.0588 H     2211  UNL2211     0.1146
   8845 N          35.6319   23.3584    2.3183 N.3   2212  UNL2212    -0.3437
   8846 H          36.0472   24.1277    1.7947 H     2212  UNL2212     0.1146
   8847 H          36.4025   22.8996    2.8020 H     2212  UNL2212     0.1146
   8848 H          35.0610   23.7888    3.0444 H     2212  UNL2212     0.1146
   8849 N          35.5930   21.6842    5.3053 N.3   2213  UNL2213    -0.3437
   8850 H          35.1873   20.8700    4.8459 H     2213  UNL2213     0.1146
   8851 H          36.4085   21.3433    5.8124 H     2213  UNL2213     0.1146
   8852 H          35.9538   22.2769    4.5591 H     2213  UNL2213     0.1146
   8853 N          35.6315   23.3771    7.9609 N.3   2214  UNL2214    -0.3437
   8854 H          35.0676   24.1082    7.5298 H     2214  UNL2214     0.1146
   8855 H          36.0263   22.8369    7.1923 H     2214  UNL2214     0.1146
   8856 H          36.4172   23.8522    8.4029 H     2214  UNL2214     0.1146
   8857 N          35.6458   23.6515   10.6494 N.3   2215  UNL2215    -0.3437
   8858 H          35.0326   23.1079   10.0437 H     2215  UNL2215     0.1146
   8859 H          36.4182   23.0336   10.8945 H     2215  UNL2215     0.1146
   8860 H          36.0459   24.3815   10.0617 H     2215  UNL2215     0.1146
   8861 N          35.6314   21.3728   13.2386 N.3   2216  UNL2216    -0.3437
   8862 H          35.0619   21.7459   12.4804 H     2216  UNL2216     0.1146
   8863 H          36.4014   20.8758   12.7932 H     2216  UNL2216     0.1146
   8864 H          36.0479   22.1800   13.7005 H     2216  UNL2216     0.1146
   8865 N          34.7293   23.7439   15.4840 N.3   2217  UNL2217    -0.3437
   8866 H          34.3180   23.9893   16.3835 H     2217  UNL2217     0.1146
   8867 H          35.7264   23.6221   15.6551 H     2217  UNL2217     0.1146
   8868 H          34.3689   22.8191   15.2534 H     2217  UNL2217     0.1146
   8869 N          35.8838   23.7742   18.4916 N.3   2218  UNL2218    -0.3437
   8870 H          36.3923   22.9148   18.6945 H     2218  UNL2218     0.1146
   8871 H          35.9650   23.9179   17.4860 H     2218  UNL2218     0.1146
   8872 H          34.9016   23.5675   18.6673 H     2218  UNL2218     0.1146
   8873 N          35.6432   23.6588   20.7437 N.3   2219  UNL2219    -0.3437
   8874 H          35.0377   23.5277   21.5527 H     2219  UNL2219     0.1146
   8875 H          36.4149   24.2432   21.0622 H     2219  UNL2219     0.1146
   8876 H          36.0469   22.7448   20.5439 H     2219  UNL2219     0.1146
   8877 N          35.8934   23.5970   23.8865 N.3   2220  UNL2220    -0.3437
   8878 H          34.9203   23.8824   23.7871 H     2220  UNL2220     0.1146
   8879 H          35.9231   22.6091   23.6385 H     2220  UNL2220     0.1146
   8880 H          36.4057   24.0859   23.1537 H     2220  UNL2220     0.1146
   8881 N          34.7785   23.3643   26.4921 N.3   2221  UNL2221    -0.3437
   8882 H          35.7258   23.6348   26.2317 H     2221  UNL2221     0.1146
   8883 H          34.2699   24.2340   26.6447 H     2221  UNL2221     0.1146
   8884 H          34.3685   22.9414   25.6606 H     2221  UNL2221     0.1146
   8885 N          35.6603   23.7438   28.7205 N.3   2222  UNL2222    -0.3437
   8886 H          36.2200   24.1678   29.4589 H     2222  UNL2222     0.1146
   8887 H          36.2850   23.1113   28.2224 H     2222  UNL2222     0.1146
   8888 H          34.9773   23.1515   29.1907 H     2222  UNL2222     0.1146
   8889 N          35.6214   23.3161   31.6318 N.3   2223  UNL2223    -0.3437
   8890 H          35.0771   24.0155   31.1290 H     2223  UNL2223     0.1146
   8891 H          36.3669   23.0313   30.9981 H     2223  UNL2223     0.1146
   8892 H          36.0772   23.8115   32.3968 H     2223  UNL2223     0.1146
   8893 N          35.7609   23.3541   34.9543 N.3   2224  UNL2224    -0.3437
   8894 H          36.0966   22.9096   35.8076 H     2224  UNL2224     0.1146
   8895 H          34.8752   23.7956   35.1973 H     2224  UNL2224     0.1146
   8896 H          36.4100   24.1152   34.7599 H     2224  UNL2224     0.1146
   8897 N          35.0723   26.3384   -0.0831 N.3   2225  UNL2225    -0.3437
   8898 H          34.5091   25.5800    0.2991 H     2225  UNL2225     0.1146
   8899 H          34.9033   26.3348   -1.0880 H     2225  UNL2225     0.1146
   8900 H          34.6579   27.2005    0.2682 H     2225  UNL2225     0.1146
   8901 N          35.6357   26.1174    2.5559 N.3   2226  UNL2226    -0.3437
   8902 H          35.0260   26.9013    2.3274 H     2226  UNL2226     0.1146
   8903 H          36.2535   25.9990    1.7542 H     2226  UNL2226     0.1146
   8904 H          36.2275   26.4359    3.3219 H     2226  UNL2226     0.1146
   8905 N          35.7329   24.6345    5.2361 N.3   2227  UNL2227    -0.3437
   8906 H          34.8937   24.0580    5.1932 H     2227  UNL2227     0.1146
   8907 H          36.4020   24.1148    5.8023 H     2227  UNL2227     0.1146
   8908 H          36.1140   24.6463    4.2911 H     2227  UNL2227     0.1146
   8909 N          35.7135   26.4149    7.4895 N.3   2228  UNL2228    -0.3437
   8910 H          34.9122   26.1454    8.0584 H     2228  UNL2228     0.1146
   8911 H          36.1217   27.2289    7.9470 H     2228  UNL2228     0.1146
   8912 H          36.3952   25.6644    7.5911 H     2228  UNL2228     0.1146
   8913 N          35.6946   26.6361   10.3439 N.3   2229  UNL2229    -0.3437
   8914 H          34.9395   25.9522   10.3250 H     2229  UNL2229     0.1146
   8915 H          36.1020   26.5790   11.2761 H     2229  UNL2229     0.1146
   8916 H          36.4066   26.2862    9.7043 H     2229  UNL2229     0.1146
   8917 N          35.6507   24.5855   13.1940 N.3   2230  UNL2230    -0.3437
   8918 H          35.0036   23.8572   12.8955 H     2230  UNL2230     0.1146
   8919 H          36.3504   24.1204   13.7706 H     2230  UNL2230     0.1146
   8920 H          36.1379   24.8904   12.3525 H     2230  UNL2230     0.1146
   8921 N          35.7164   26.3166   15.4105 N.3   2231  UNL2231    -0.3437
   8922 H          34.9096   26.2502   16.0293 H     2231  UNL2231     0.1146
   8923 H          36.1183   27.2391   15.5710 H     2231  UNL2231     0.1146
   8924 H          36.3983   25.6476   15.7652 H     2231  UNL2231     0.1146
   8925 N          35.6846   26.1772   18.1287 N.3   2232  UNL2232    -0.3437
   8926 H          34.9549   26.4936   18.7658 H     2232  UNL2232     0.1146
   8927 H          36.0951   27.0207   17.7307 H     2232  UNL2232     0.1146
   8928 H          36.4080   25.7621   18.7141 H     2232  UNL2232     0.1146
   8929 N          35.6686   26.5711   21.1503 N.3   2233  UNL2233    -0.3437
   8930 H          34.9765   25.9031   20.8141 H     2233  UNL2233     0.1146
   8931 H          36.3861   26.0201   21.6194 H     2233  UNL2233     0.1146
   8932 H          36.1115   26.9592   20.3187 H     2233  UNL2233     0.1146
   8933 N          35.6443   26.4707   23.8528 N.3   2234  UNL2234    -0.3437
   8934 H          35.0180   26.0081   23.1955 H     2234  UNL2234     0.1146
   8935 H          36.3539   25.7814   24.0973 H     2234  UNL2234     0.1146
   8936 H          36.1265   27.1933   23.3202 H     2234  UNL2234     0.1146
   8937 N          35.7632   26.4955   25.9938 N.3   2235  UNL2235    -0.3437
   8938 H          34.8759   26.4595   26.4936 H     2235  UNL2235     0.1146
   8939 H          36.4174   26.9672   26.6166 H     2235  UNL2235     0.1146
   8940 H          36.0862   25.5315   25.9252 H     2235  UNL2235     0.1146
   8941 N          35.6671   26.5517   28.7035 N.3   2236  UNL2236    -0.3437
   8942 H          34.9786   25.9203   29.1105 H     2236  UNL2236     0.1146
   8943 H          36.1130   27.0247   29.4883 H     2236  UNL2236     0.1146
   8944 H          36.3839   25.9569   28.2901 H     2236  UNL2236     0.1146
   8945 N          35.6640   26.3707   31.8082 N.3   2237  UNL2237    -0.3437
   8946 H          34.9928   26.1339   31.0791 H     2237  UNL2237     0.1146
   8947 H          36.4141   25.6850   31.7330 H     2237  UNL2237     0.1146
   8948 H          36.0717   27.2639   31.5354 H     2237  UNL2237     0.1146
   8949 N          35.5467   26.5353   35.2065 N.3   2238  UNL2238    -0.3437
   8950 H          35.5989   25.8179   35.9283 H     2238  UNL2238     0.1146
   8951 H          36.4183   27.0596   35.2680 H     2238  UNL2238     0.1146
   8952 H          35.5788   26.0407   34.3161 H     2238  UNL2238     0.1146
   8953 N          35.9313   29.0397   -0.3645 N.3   2239  UNL2239    -0.3437
   8954 H          34.9292   29.0964   -0.5404 H     2239  UNL2239     0.1146
   8955 H          36.2505   30.0002   -0.2465 H     2239  UNL2239     0.1146
   8956 H          36.0317   28.5964    0.5476 H     2239  UNL2239     0.1146
   8957 N          35.0734   30.1599    2.5533 N.3   2240  UNL2240    -0.3437
   8958 H          34.8999   30.3139    1.5611 H     2240  UNL2240     0.1146
   8959 H          34.6236   30.9337    3.0405 H     2240  UNL2240     0.1146
   8960 H          34.5457   29.3252    2.8045 H     2240  UNL2240     0.1146
   8961 N          35.8609   30.2993    4.8695 N.3   2241  UNL2241    -0.3437
   8962 H          36.2977   29.3944    5.0390 H     2241  UNL2241     0.1146
   8963 H          34.8572   30.1479    4.9589 H     2241  UNL2241     0.1146
   8964 H          36.1267   30.8911    5.6553 H     2241  UNL2241     0.1146
   8965 N          35.6115   30.0176    7.9436 N.3   2242  UNL2242    -0.3437
   8966 H          35.0915   30.7112    7.4081 H     2242  UNL2242     0.1146
   8967 H          36.1299   29.4665    7.2610 H     2242  UNL2242     0.1146
   8968 H          36.3097   30.5374    8.4733 H     2242  UNL2242     0.1146
   8969 N          35.9083   29.0947   10.6663 N.3   2243  UNL2243    -0.3437
   8970 H          34.9461   28.7762   10.5615 H     2243  UNL2243     0.1146
   8971 H          36.4083   28.7525    9.8470 H     2243  UNL2243     0.1146
   8972 H          35.8799   30.1092   10.5745 H     2243  UNL2243     0.1146
   8973 N          34.8736   30.0439   13.2986 N.3   2244  UNL2244    -0.3437
   8974 H          35.6522   30.4113   12.7534 H     2244  UNL2244     0.1146
   8975 H          34.2666   30.8391   13.4926 H     2244  UNL2244     0.1146
   8976 H          34.3502   29.4383   12.6680 H     2244  UNL2244     0.1146
   8977 N          34.6606   30.1332   15.4308 N.3   2245  UNL2245    -0.3437
   8978 H          34.1533   30.8227   15.9838 H     2245  UNL2245     0.1146
   8979 H          35.6150   30.4820   15.3539 H     2245  UNL2245     0.1146
   8980 H          34.7137   29.2947   16.0074 H     2245  UNL2245     0.1146
   8981 N          34.5768   30.1470   18.1288 N.3   2246  UNL2246    -0.3437
   8982 H          34.2005   30.4696   19.0191 H     2246  UNL2246     0.1146
   8983 H          35.2831   30.8300   17.8584 H     2246  UNL2246     0.1146
   8984 H          35.0823   29.2861   18.3329 H     2246  UNL2246     0.1146
   8985 N          36.0445   30.2447   21.1045 N.3   2247  UNL2247    -0.3437
   8986 H          35.6547   29.3536   21.4086 H     2247  UNL2247     0.1146
   8987 H          36.1129   30.1894   20.0893 H     2247  UNL2247     0.1146
   8988 H          35.3305   30.9449   21.3001 H     2247  UNL2247     0.1146
   8989 N          35.6656   30.1336   23.8059 N.3   2248  UNL2248    -0.3437
   8990 H          34.9881   30.5097   23.1442 H     2248  UNL2248     0.1146
   8991 H          36.4091   29.7221   23.2434 H     2248  UNL2248     0.1146
   8992 H          36.0797   30.9393   24.2724 H     2248  UNL2248     0.1146
   8993 N          35.6181   29.3980   26.3720 N.3   2249  UNL2249    -0.3437
   8994 H          35.1021   28.7943   25.7335 H     2249  UNL2249     0.1146
   8995 H          36.0122   28.7835   27.0829 H     2249  UNL2249     0.1146
   8996 H          36.4102   29.7569   25.8407 H     2249  UNL2249     0.1146
   8997 N          35.0677   30.1466   28.9787 N.3   2250  UNL2250    -0.3437
   8998 H          34.9635   30.7746   28.1830 H     2250  UNL2250     0.1146
   8999 H          34.4926   30.5386   29.7231 H     2250  UNL2250     0.1146
   9000 H          34.6188   29.2729   28.7076 H     2250  UNL2250     0.1146
   9001 N          35.9714   30.1436   31.7654 N.3   2251  UNL2251    -0.3437
   9002 H          35.8692   29.3094   31.1891 H     2251  UNL2251     0.1146
   9003 H          36.2713   30.8857   31.1347 H     2251  UNL2251     0.1146
   9004 H          35.0307   30.3940   32.0665 H     2251  UNL2251     0.1146
   9005 N          35.7714   29.4745   35.1317 N.3   2252  UNL2252    -0.3437
   9006 H          34.8597   29.0614   35.3230 H     2252  UNL2252     0.1146
   9007 H          36.3609   29.2346   35.9275 H     2252  UNL2252     0.1146
   9008 H          36.1506   28.9622   34.3368 H     2252  UNL2252     0.1146
@<TRIPOS>BOND
     1     1     2    1
     2     1     3    1
     3     1     4    1
     4     5     6    1
     5     5     7    1
     6     5     8    1
     7     9    10    1
     8     9    11    1
     9     9    12    1
    10    13    14    1
    11    13    15    1
    12    13    16    1
    13    17    18    1
    14    17    19    1
    15    17    20    1
    16    21    22    1
    17    21    23    1
    18    21    24    1
    19    25    26    1
    20    25    27    1
    21    25    28    1
    22    29    30    1
    23    29    31    1
    24    29    32    1
    25    33    34    1
    26    33    35    1
    27    33    36    1
    28    37    38    1
    29    37    39    1
    30    37    40    1
    31    41    42    1
    32    41    43    1
    33    41    44    1
    34    45    46    1
    35    45    47    1
    36    45    48    1
    37    49    50    1
    38    49    51    1
    39    49    52    1
    40    53    54    1
    41    53    55    1
    42    53    56    1
    43    57    58    1
    44    57    59    1
    45    57    60    1
    46    61    62    1
    47    61    63    1
    48    61    64    1
    49    65    66    1
    50    65    67    1
    51    65    68    1
    52    69    70    1
    53    69    71    1
    54    69    72    1
    55    73    74    1
    56    73    75    1
    57    73    76    1
    58    77    78    1
    59    77    79    1
    60    77    80    1
    61    81    82    1
    62    81    83    1
    63    81    84    1
    64    85    86    1
    65    85    87    1
    66    85    88    1
    67    89    90    1
    68    89    91    1
    69    89    92    1
    70    93    94    1
    71    93    95    1
    72    93    96    1
    73    97    98    1
    74    97    99    1
    75    97   100    1
    76   101   102    1
    77   101   103    1
    78   101   104    1
    79   105   106    1
    80   105   107    1
    81   105   108    1
    82   109   110    1
    83   109   111    1
    84   109   112    1
    85   113   114    1
    86   113   115    1
    87   113   116    1
    88   117   118    1
    89   117   119    1
    90   117   120    1
    91   121   122    1
    92   121   123    1
    93   121   124    1
    94   125   126    1
    95   125   127    1
    96   125   128    1
    97   129   130    1
    98   129   131    1
    99   129   132    1
   100   133   134    1
   101   133   135    1
   102   133   136    1
   103   137   138    1
   104   137   139    1
   105   137   140    1
   106   141   142    1
   107   141   143    1
   108   141   144    1
   109   145   146    1
   110   145   147    1
   111   145   148    1
   112   149   150    1
   113   149   151    1
   114   149   152    1
   115   153   154    1
   116   153   155    1
   117   153   156    1
   118   157   158    1
   119   157   159    1
   120   157   160    1
   121   161   162    1
   122   161   163    1
   123   161   164    1
   124   165   166    1
   125   165   167    1
   126   165   168    1
   127   169   170    1
   128   169   171    1
   129   169   172    1
   130   173   174    1
   131   173   175    1
   132   173   176    1
   133   177   178    1
   134   177   179    1
   135   177   180    1
   136   181   182    1
   137   181   183    1
   138   181   184    1
   139   185   186    1
   140   185   187    1
   141   185   188    1
   142   189   190    1
   143   189   191    1
   144   189   192    1
   145   193   194    1
   146   193   195    1
   147   193   196    1
   148   197   198    1
   149   197   199    1
   150   197   200    1
   151   201   202    1
   152   201   203    1
   153   201   204    1
   154   205   206    1
   155   205   207    1
   156   205   208    1
   157   209   210    1
   158   209   211    1
   159   209   212    1
   160   213   214    1
   161   213   215    1
   162   213   216    1
   163   217   218    1
   164   217   219    1
   165   217   220    1
   166   221   222    1
   167   221   223    1
   168   221   224    1
   169   225   226    1
   170   225   227    1
   171   225   228    1
   172   229   230    1
   173   229   231    1
   174   229   232    1
   175   233   234    1
   176   233   235    1
   177   233   236    1
   178   237   238    1
   179   237   239    1
   180   237   240    1
   181   241   242    1
   182   241   243    1
   183   241   244    1
   184   245   246    1
   185   245   247    1
   186   245   248    1
   187   249   250    1
   188   249   251    1
   189   249   252    1
   190   253   254    1
   191   253   255    1
   192   253   256    1
   193   257   258    1
   194   257   259    1
   195   257   260    1
   196   261   262    1
   197   261   263    1
   198   261   264    1
   199   265   266    1
   200   265   267    1
   201   265   268    1
   202   269   270    1
   203   269   271    1
   204   269   272    1
   205   273   274    1
   206   273   275    1
   207   273   276    1
   208   277   278    1
   209   277   279    1
   210   277   280    1
   211   281   282    1
   212   281   283    1
   213   281   284    1
   214   285   286    1
   215   285   287    1
   216   285   288    1
   217   289   290    1
   218   289   291    1
   219   289   292    1
   220   293   294    1
   221   293   295    1
   222   293   296    1
   223   297   298    1
   224   297   299    1
   225   297   300    1
   226   301   302    1
   227   301   303    1
   228   301   304    1
   229   305   306    1
   230   305   307    1
   231   305   308    1
   232   309   310    1
   233   309   311    1
   234   309   312    1
   235   313   314    1
   236   313   315    1
   237   313   316    1
   238   317   318    1
   239   317   319    1
   240   317   320    1
   241   321   322    1
   242   321   323    1
   243   321   324    1
   244   325   326    1
   245   325   327    1
   246   325   328    1
   247   329   330    1
   248   329   331    1
   249   329   332    1
   250   333   334    1
   251   333   335    1
   252   333   336    1
   253   337   338    1
   254   337   339    1
   255   337   340    1
   256   341   342    1
   257   341   343    1
   258   341   344    1
   259   345   346    1
   260   345   347    1
   261   345   348    1
   262   349   350    1
   263   349   351    1
   264   349   352    1
   265   353   354    1
   266   353   355    1
   267   353   356    1
   268   357   358    1
   269   357   359    1
   270   357   360    1
   271   361   362    1
   272   361   363    1
   273   361   364    1
   274   365   366    1
   275   365   367    1
   276   365   368    1
   277   369   370    1
   278   369   371    1
   279   369   372    1
   280   373   374    1
   281   373   375    1
   282   373   376    1
   283   377   378    1
   284   377   379    1
   285   377   380    1
   286   381   382    1
   287   381   383    1
   288   381   384    1
   289   385   386    1
   290   385   387    1
   291   385   388    1
   292   389   390    1
   293   389   391    1
   294   389   392    1
   295   393   394    1
   296   393   395    1
   297   393   396    1
   298   397   398    1
   299   397   399    1
   300   397   400    1
   301   401   402    1
   302   401   403    1
   303   401   404    1
   304   405   406    1
   305   405   407    1
   306   405   408    1
   307   409   410    1
   308   409   411    1
   309   409   412    1
   310   413   414    1
   311   413   415    1
   312   413   416    1
   313   417   418    1
   314   417   419    1
   315   417   420    1
   316   421   422    1
   317   421   423    1
   318   421   424    1
   319   425   426    1
   320   425   427    1
   321   425   428    1
   322   429   430    1
   323   429   431    1
   324   429   432    1
   325   433   434    1
   326   433   435    1
   327   433   436    1
   328   437   438    1
   329   437   439    1
   330   437   440    1
   331   441   442    1
   332   441   443    1
   333   441   444    1
   334   445   446    1
   335   445   447    1
   336   445   448    1
   337   449   450    1
   338   449   451    1
   339   449   452    1
   340   453   454    1
   341   453   455    1
   342   453   456    1
   343   457   458    1
   344   457   459    1
   345   457   460    1
   346   461   462    1
   347   461   463    1
   348   461   464    1
   349   465   466    1
   350   465   467    1
   351   465   468    1
   352   469   470    1
   353   469   471    1
   354   469   472    1
   355   473   474    1
   356   473   475    1
   357   473   476    1
   358   477   478    1
   359   477   479    1
   360   477   480    1
   361   481   482    1
   362   481   483    1
   363   481   484    1
   364   485   486    1
   365   485   487    1
   366   485   488    1
   367   489   490    1
   368   489   491    1
   369   489   492    1
   370   493   494    1
   371   493   495    1
   372   493   496    1
   373   497   498    1
   374   497   499    1
   375   497   500    1
   376   501   502    1
   377   501   503    1
   378   501   504    1
   379   505   506    1
   380   505   507    1
   381   505   508    1
   382   509   510    1
   383   509   511    1
   384   509   512    1
   385   513   514    1
   386   513   515    1
   387   513   516    1
   388   517   518    1
   389   517   519    1
   390   517   520    1
   391   521   522    1
   392   521   523    1
   393   521   524    1
   394   525   526    1
   395   525   527    1
   396   525   528    1
   397   529   530    1
   398   529   531    1
   399   529   532    1
   400   533   534    1
   401   533   535    1
   402   533   536    1
   403   537   538    1
   404   537   539    1
   405   537   540    1
   406   541   542    1
   407   541   543    1
   408   541   544    1
   409   545   546    1
   410   545   547    1
   411   545   548    1
   412   549   550    1
   413   549   551    1
   414   549   552    1
   415   553   554    1
   416   553   555    1
   417   553   556    1
   418   557   558    1
   419   557   559    1
   420   557   560    1
   421   561   562    1
   422   561   563    1
   423   561   564    1
   424   565   566    1
   425   565   567    1
   426   565   568    1
   427   569   570    1
   428   569   571    1
   429   569   572    1
   430   573   574    1
   431   573   575    1
   432   573   576    1
   433   577   578    1
   434   577   579    1
   435   577   580    1
   436   581   582    1
   437   581   583    1
   438   581   584    1
   439   585   586    1
   440   585   587    1
   441   585   588    1
   442   589   590    1
   443   589   591    1
   444   589   592    1
   445   593   594    1
   446   593   595    1
   447   593   596    1
   448   597   598    1
   449   597   599    1
   450   597   600    1
   451   601   602    1
   452   601   603    1
   453   601   604    1
   454   605   606    1
   455   605   607    1
   456   605   608    1
   457   609   610    1
   458   609   611    1
   459   609   612    1
   460   613   614    1
   461   613   615    1
   462   613   616    1
   463   617   618    1
   464   617   619    1
   465   617   620    1
   466   621   622    1
   467   621   623    1
   468   621   624    1
   469   625   626    1
   470   625   627    1
   471   625   628    1
   472   629   630    1
   473   629   631    1
   474   629   632    1
   475   633   634    1
   476   633   635    1
   477   633   636    1
   478   637   638    1
   479   637   639    1
   480   637   640    1
   481   641   642    1
   482   641   643    1
   483   641   644    1
   484   645   646    1
   485   645   647    1
   486   645   648    1
   487   649   650    1
   488   649   651    1
   489   649   652    1
   490   653   654    1
   491   653   655    1
   492   653   656    1
   493   657   658    1
   494   657   659    1
   495   657   660    1
   496   661   662    1
   497   661   663    1
   498   661   664    1
   499   665   666    1
   500   665   667    1
   501   665   668    1
   502   669   670    1
   503   669   671    1
   504   669   672    1
   505   673   674    1
   506   673   675    1
   507   673   676    1
   508   677   678    1
   509   677   679    1
   510   677   680    1
   511   681   682    1
   512   681   683    1
   513   681   684    1
   514   685   686    1
   515   685   687    1
   516   685   688    1
   517   689   690    1
   518   689   691    1
   519   689   692    1
   520   693   694    1
   521   693   695    1
   522   693   696    1
   523   697   698    1
   524   697   699    1
   525   697   700    1
   526   701   702    1
   527   701   703    1
   528   701   704    1
   529   705   706    1
   530   705   707    1
   531   705   708    1
   532   709   710    1
   533   709   711    1
   534   709   712    1
   535   713   714    1
   536   713   715    1
   537   713   716    1
   538   717   718    1
   539   717   719    1
   540   717   720    1
   541   721   722    1
   542   721   723    1
   543   721   724    1
   544   725   726    1
   545   725   727    1
   546   725   728    1
   547   729   730    1
   548   729   731    1
   549   729   732    1
   550   733   734    1
   551   733   735    1
   552   733   736    1
   553   737   738    1
   554   737   739    1
   555   737   740    1
   556   741   742    1
   557   741   743    1
   558   741   744    1
   559   745   746    1
   560   745   747    1
   561   745   748    1
   562   749   750    1
   563   749   751    1
   564   749   752    1
   565   753   754    1
   566   753   755    1
   567   753   756    1
   568   757   758    1
   569   757   759    1
   570   757   760    1
   571   761   762    1
   572   761   763    1
   573   761   764    1
   574   765   766    1
   575   765   767    1
   576   765   768    1
   577   769   770    1
   578   769   771    1
   579   769   772    1
   580   773   774    1
   581   773   775    1
   582   773   776    1
   583   777   778    1
   584   777   779    1
   585   777   780    1
   586   781   782    1
   587   781   783    1
   588   781   784    1
   589   785   786    1
   590   785   787    1
   591   785   788    1
   592   789   790    1
   593   789   791    1
   594   789   792    1
   595   793   794    1
   596   793   795    1
   597   793   796    1
   598   797   798    1
   599   797   799    1
   600   797   800    1
   601   801   802    1
   602   801   803    1
   603   801   804    1
   604   805   806    1
   605   805   807    1
   606   805   808    1
   607   809   810    1
   608   809   811    1
   609   809   812    1
   610   813   814    1
   611   813   815    1
   612   813   816    1
   613   817   818    1
   614   817   819    1
   615   817   820    1
   616   821   822    1
   617   821   823    1
   618   821   824    1
   619   825   826    1
   620   825   827    1
   621   825   828    1
   622   829   830    1
   623   829   831    1
   624   829   832    1
   625   833   834    1
   626   833   835    1
   627   833   836    1
   628   837   838    1
   629   837   839    1
   630   837   840    1
   631   841   842    1
   632   841   843    1
   633   841   844    1
   634   845   846    1
   635   845   847    1
   636   845   848    1
   637   849   850    1
   638   849   851    1
   639   849   852    1
   640   853   854    1
   641   853   855    1
   642   853   856    1
   643   857   858    1
   644   857   859    1
   645   857   860    1
   646   861   862    1
   647   861   863    1
   648   861   864    1
   649   865   866    1
   650   865   867    1
   651   865   868    1
   652   869   870    1
   653   869   871    1
   654   869   872    1
   655   873   874    1
   656   873   875    1
   657   873   876    1
   658   877   878    1
   659   877   879    1
   660   877   880    1
   661   881   882    1
   662   881   883    1
   663   881   884    1
   664   885   886    1
   665   885   887    1
   666   885   888    1
   667   889   890    1
   668   889   891    1
   669   889   892    1
   670   893   894    1
   671   893   895    1
   672   893   896    1
   673   897   898    1
   674   897   899    1
   675   897   900    1
   676   901   902    1
   677   901   903    1
   678   901   904    1
   679   905   906    1
   680   905   907    1
   681   905   908    1
   682   909   910    1
   683   909   911    1
   684   909   912    1
   685   913   914    1
   686   913   915    1
   687   913   916    1
   688   917   918    1
   689   917   919    1
   690   917   920    1
   691   921   922    1
   692   921   923    1
   693   921   924    1
   694   925   926    1
   695   925   927    1
   696   925   928    1
   697   929   930    1
   698   929   931    1
   699   929   932    1
   700   933   934    1
   701   933   935    1
   702   933   936    1
   703   937   938    1
   704   937   939    1
   705   937   940    1
   706   941   942    1
   707   941   943    1
   708   941   944    1
   709   945   946    1
   710   945   947    1
   711   945   948    1
   712   949   950    1
   713   949   951    1
   714   949   952    1
   715   953   954    1
   716   953   955    1
   717   953   956    1
   718   957   958    1
   719   957   959    1
   720   957   960    1
   721   961   962    1
   722   961   963    1
   723   961   964    1
   724   965   966    1
   725   965   967    1
   726   965   968    1
   727   969   970    1
   728   969   971    1
   729   969   972    1
   730   973   974    1
   731   973   975    1
   732   973   976    1
   733   977   978    1
   734   977   979    1
   735   977   980    1
   736   981   982    1
   737   981   983    1
   738   981   984    1
   739   985   986    1
   740   985   987    1
   741   985   988    1
   742   989   990    1
   743   989   991    1
   744   989   992    1
   745   993   994    1
   746   993   995    1
   747   993   996    1
   748   997   998    1
   749   997   999    1
   750   997  1000    1
   751  1001  1002    1
   752  1001  1003    1
   753  1001  1004    1
   754  1005  1006    1
   755  1005  1007    1
   756  1005  1008    1
   757  1009  1010    1
   758  1009  1011    1
   759  1009  1012    1
   760  1013  1014    1
   761  1013  1015    1
   762  1013  1016    1
   763  1017  1018    1
   764  1017  1019    1
   765  1017  1020    1
   766  1021  1022    1
   767  1021  1023    1
   768  1021  1024    1
   769  1025  1026    1
   770  1025  1027    1
   771  1025  1028    1
   772  1029  1030    1
   773  1029  1031    1
   774  1029  1032    1
   775  1033  1034    1
   776  1033  1035    1
   777  1033  1036    1
   778  1037  1038    1
   779  1037  1039    1
   780  1037  1040    1
   781  1041  1042    1
   782  1041  1043    1
   783  1041  1044    1
   784  1045  1046    1
   785  1045  1047    1
   786  1045  1048    1
   787  1049  1050    1
   788  1049  1051    1
   789  1049  1052    1
   790  1053  1054    1
   791  1053  1055    1
   792  1053  1056    1
   793  1057  1058    1
   794  1057  1059    1
   795  1057  1060    1
   796  1061  1062    1
   797  1061  1063    1
   798  1061  1064    1
   799  1065  1066    1
   800  1065  1067    1
   801  1065  1068    1
   802  1069  1070    1
   803  1069  1071    1
   804  1069  1072    1
   805  1073  1074    1
   806  1073  1075    1
   807  1073  1076    1
   808  1077  1078    1
   809  1077  1079    1
   810  1077  1080    1
   811  1081  1082    1
   812  1081  1083    1
   813  1081  1084    1
   814  1085  1086    1
   815  1085  1087    1
   816  1085  1088    1
   817  1089  1090    1
   818  1089  1091    1
   819  1089  1092    1
   820  1093  1094    1
   821  1093  1095    1
   822  1093  1096    1
   823  1097  1098    1
   824  1097  1099    1
   825  1097  1100    1
   826  1101  1102    1
   827  1101  1103    1
   828  1101  1104    1
   829  1105  1106    1
   830  1105  1107    1
   831  1105  1108    1
   832  1109  1110    1
   833  1109  1111    1
   834  1109  1112    1
   835  1113  1114    1
   836  1113  1115    1
   837  1113  1116    1
   838  1117  1118    1
   839  1117  1119    1
   840  1117  1120    1
   841  1121  1122    1
   842  1121  1123    1
   843  1121  1124    1
   844  1125  1126    1
   845  1125  1127    1
   846  1125  1128    1
   847  1129  1130    1
   848  1129  1131    1
   849  1129  1132    1
   850  1133  1134    1
   851  1133  1135    1
   852  1133  1136    1
   853  1137  1138    1
   854  1137  1139    1
   855  1137  1140    1
   856  1141  1142    1
   857  1141  1143    1
   858  1141  1144    1
   859  1145  1146    1
   860  1145  1147    1
   861  1145  1148    1
   862  1149  1150    1
   863  1149  1151    1
   864  1149  1152    1
   865  1153  1154    1
   866  1153  1155    1
   867  1153  1156    1
   868  1157  1158    1
   869  1157  1159    1
   870  1157  1160    1
   871  1161  1162    1
   872  1161  1163    1
   873  1161  1164    1
   874  1165  1166    1
   875  1165  1167    1
   876  1165  1168    1
   877  1169  1170    1
   878  1169  1171    1
   879  1169  1172    1
   880  1173  1174    1
   881  1173  1175    1
   882  1173  1176    1
   883  1177  1178    1
   884  1177  1179    1
   885  1177  1180    1
   886  1181  1182    1
   887  1181  1183    1
   888  1181  1184    1
   889  1185  1186    1
   890  1185  1187    1
   891  1185  1188    1
   892  1189  1190    1
   893  1189  1191    1
   894  1189  1192    1
   895  1193  1194    1
   896  1193  1195    1
   897  1193  1196    1
   898  1197  1198    1
   899  1197  1199    1
   900  1197  1200    1
   901  1201  1202    1
   902  1201  1203    1
   903  1201  1204    1
   904  1205  1206    1
   905  1205  1207    1
   906  1205  1208    1
   907  1209  1210    1
   908  1209  1211    1
   909  1209  1212    1
   910  1213  1214    1
   911  1213  1215    1
   912  1213  1216    1
   913  1217  1218    1
   914  1217  1219    1
   915  1217  1220    1
   916  1221  1222    1
   917  1221  1223    1
   918  1221  1224    1
   919  1225  1226    1
   920  1225  1227    1
   921  1225  1228    1
   922  1229  1230    1
   923  1229  1231    1
   924  1229  1232    1
   925  1233  1234    1
   926  1233  1235    1
   927  1233  1236    1
   928  1237  1238    1
   929  1237  1239    1
   930  1237  1240    1
   931  1241  1242    1
   932  1241  1243    1
   933  1241  1244    1
   934  1245  1246    1
   935  1245  1247    1
   936  1245  1248    1
   937  1249  1250    1
   938  1249  1251    1
   939  1249  1252    1
   940  1253  1254    1
   941  1253  1255    1
   942  1253  1256    1
   943  1257  1258    1
   944  1257  1259    1
   945  1257  1260    1
   946  1261  1262    1
   947  1261  1263    1
   948  1261  1264    1
   949  1265  1266    1
   950  1265  1267    1
   951  1265  1268    1
   952  1269  1270    1
   953  1269  1271    1
   954  1269  1272    1
   955  1273  1274    1
   956  1273  1275    1
   957  1273  1276    1
   958  1277  1278    1
   959  1277  1279    1
   960  1277  1280    1
   961  1281  1282    1
   962  1281  1283    1
   963  1281  1284    1
   964  1285  1286    1
   965  1285  1287    1
   966  1285  1288    1
   967  1289  1290    1
   968  1289  1291    1
   969  1289  1292    1
   970  1293  1294    1
   971  1293  1295    1
   972  1293  1296    1
   973  1297  1298    1
   974  1297  1299    1
   975  1297  1300    1
   976  1301  1302    1
   977  1301  1303    1
   978  1301  1304    1
   979  1305  1306    1
   980  1305  1307    1
   981  1305  1308    1
   982  1309  1310    1
   983  1309  1311    1
   984  1309  1312    1
   985  1313  1314    1
   986  1313  1315    1
   987  1313  1316    1
   988  1317  1318    1
   989  1317  1319    1
   990  1317  1320    1
   991  1321  1322    1
   992  1321  1323    1
   993  1321  1324    1
   994  1325  1326    1
   995  1325  1327    1
   996  1325  1328    1
   997  1329  1330    1
   998  1329  1331    1
   999  1329  1332    1
  1000  1333  1334    1
  1001  1333  1335    1
  1002  1333  1336    1
  1003  1337  1338    1
  1004  1337  1339    1
  1005  1337  1340    1
  1006  1341  1342    1
  1007  1341  1343    1
  1008  1341  1344    1
  1009  1345  1346    1
  1010  1345  1347    1
  1011  1345  1348    1
  1012  1349  1350    1
  1013  1349  1351    1
  1014  1349  1352    1
  1015  1353  1354    1
  1016  1353  1355    1
  1017  1353  1356    1
  1018  1357  1358    1
  1019  1357  1359    1
  1020  1357  1360    1
  1021  1361  1362    1
  1022  1361  1363    1
  1023  1361  1364    1
  1024  1365  1366    1
  1025  1365  1367    1
  1026  1365  1368    1
  1027  1369  1370    1
  1028  1369  1371    1
  1029  1369  1372    1
  1030  1373  1374    1
  1031  1373  1375    1
  1032  1373  1376    1
  1033  1377  1378    1
  1034  1377  1379    1
  1035  1377  1380    1
  1036  1381  1382    1
  1037  1381  1383    1
  1038  1381  1384    1
  1039  1385  1386    1
  1040  1385  1387    1
  1041  1385  1388    1
  1042  1389  1390    1
  1043  1389  1391    1
  1044  1389  1392    1
  1045  1393  1394    1
  1046  1393  1395    1
  1047  1393  1396    1
  1048  1397  1398    1
  1049  1397  1399    1
  1050  1397  1400    1
  1051  1401  1402    1
  1052  1401  1403    1
  1053  1401  1404    1
  1054  1405  1406    1
  1055  1405  1407    1
  1056  1405  1408    1
  1057  1409  1410    1
  1058  1409  1411    1
  1059  1409  1412    1
  1060  1413  1414    1
  1061  1413  1415    1
  1062  1413  1416    1
  1063  1417  1418    1
  1064  1417  1419    1
  1065  1417  1420    1
  1066  1421  1422    1
  1067  1421  1423    1
  1068  1421  1424    1
  1069  1425  1426    1
  1070  1425  1427    1
  1071  1425  1428    1
  1072  1429  1430    1
  1073  1429  1431    1
  1074  1429  1432    1
  1075  1433  1434    1
  1076  1433  1435    1
  1077  1433  1436    1
  1078  1437  1438    1
  1079  1437  1439    1
  1080  1437  1440    1
  1081  1441  1442    1
  1082  1441  1443    1
  1083  1441  1444    1
  1084  1445  1446    1
  1085  1445  1447    1
  1086  1445  1448    1
  1087  1449  1450    1
  1088  1449  1451    1
  1089  1449  1452    1
  1090  1453  1454    1
  1091  1453  1455    1
  1092  1453  1456    1
  1093  1457  1458    1
  1094  1457  1459    1
  1095  1457  1460    1
  1096  1461  1462    1
  1097  1461  1463    1
  1098  1461  1464    1
  1099  1465  1466    1
  1100  1465  1467    1
  1101  1465  1468    1
  1102  1469  1470    1
  1103  1469  1471    1
  1104  1469  1472    1
  1105  1473  1474    1
  1106  1473  1475    1
  1107  1473  1476    1
  1108  1477  1478    1
  1109  1477  1479    1
  1110  1477  1480    1
  1111  1481  1482    1
  1112  1481  1483    1
  1113  1481  1484    1
  1114  1485  1486    1
  1115  1485  1487    1
  1116  1485  1488    1
  1117  1489  1490    1
  1118  1489  1491    1
  1119  1489  1492    1
  1120  1493  1494    1
  1121  1493  1495    1
  1122  1493  1496    1
  1123  1497  1498    1
  1124  1497  1499    1
  1125  1497  1500    1
  1126  1501  1502    1
  1127  1501  1503    1
  1128  1501  1504    1
  1129  1505  1506    1
  1130  1505  1507    1
  1131  1505  1508    1
  1132  1509  1510    1
  1133  1509  1511    1
  1134  1509  1512    1
  1135  1513  1514    1
  1136  1513  1515    1
  1137  1513  1516    1
  1138  1517  1518    1
  1139  1517  1519    1
  1140  1517  1520    1
  1141  1521  1522    1
  1142  1521  1523    1
  1143  1521  1524    1
  1144  1525  1526    1
  1145  1525  1527    1
  1146  1525  1528    1
  1147  1529  1530    1
  1148  1529  1531    1
  1149  1529  1532    1
  1150  1533  1534    1
  1151  1533  1535    1
  1152  1533  1536    1
  1153  1537  1538    1
  1154  1537  1539    1
  1155  1537  1540    1
  1156  1541  1542    1
  1157  1541  1543    1
  1158  1541  1544    1
  1159  1545  1546    1
  1160  1545  1547    1
  1161  1545  1548    1
  1162  1549  1550    1
  1163  1549  1551    1
  1164  1549  1552    1
  1165  1553  1554    1
  1166  1553  1555    1
  1167  1553  1556    1
  1168  1557  1558    1
  1169  1557  1559    1
  1170  1557  1560    1
  1171  1561  1562    1
  1172  1561  1563    1
  1173  1561  1564    1
  1174  1565  1566    1
  1175  1565  1567    1
  1176  1565  1568    1
  1177  1569  1570    1
  1178  1569  1571    1
  1179  1569  1572    1
  1180  1573  1574    1
  1181  1573  1575    1
  1182  1573  1576    1
  1183  1577  1578    1
  1184  1577  1579    1
  1185  1577  1580    1
  1186  1581  1582    1
  1187  1581  1583    1
  1188  1581  1584    1
  1189  1585  1586    1
  1190  1585  1587    1
  1191  1585  1588    1
  1192  1589  1590    1
  1193  1589  1591    1
  1194  1589  1592    1
  1195  1593  1594    1
  1196  1593  1595    1
  1197  1593  1596    1
  1198  1597  1598    1
  1199  1597  1599    1
  1200  1597  1600    1
  1201  1601  1602    1
  1202  1601  1603    1
  1203  1601  1604    1
  1204  1605  1606    1
  1205  1605  1607    1
  1206  1605  1608    1
  1207  1609  1610    1
  1208  1609  1611    1
  1209  1609  1612    1
  1210  1613  1614    1
  1211  1613  1615    1
  1212  1613  1616    1
  1213  1617  1618    1
  1214  1617  1619    1
  1215  1617  1620    1
  1216  1621  1622    1
  1217  1621  1623    1
  1218  1621  1624    1
  1219  1625  1626    1
  1220  1625  1627    1
  1221  1625  1628    1
  1222  1629  1630    1
  1223  1629  1631    1
  1224  1629  1632    1
  1225  1633  1634    1
  1226  1633  1635    1
  1227  1633  1636    1
  1228  1637  1638    1
  1229  1637  1639    1
  1230  1637  1640    1
  1231  1641  1642    1
  1232  1641  1643    1
  1233  1641  1644    1
  1234  1645  1646    1
  1235  1645  1647    1
  1236  1645  1648    1
  1237  1649  1650    1
  1238  1649  1651    1
  1239  1649  1652    1
  1240  1653  1654    1
  1241  1653  1655    1
  1242  1653  1656    1
  1243  1657  1658    1
  1244  1657  1659    1
  1245  1657  1660    1
  1246  1661  1662    1
  1247  1661  1663    1
  1248  1661  1664    1
  1249  1665  1666    1
  1250  1665  1667    1
  1251  1665  1668    1
  1252  1669  1670    1
  1253  1669  1671    1
  1254  1669  1672    1
  1255  1673  1674    1
  1256  1673  1675    1
  1257  1673  1676    1
  1258  1677  1678    1
  1259  1677  1679    1
  1260  1677  1680    1
  1261  1681  1682    1
  1262  1681  1683    1
  1263  1681  1684    1
  1264  1685  1686    1
  1265  1685  1687    1
  1266  1685  1688    1
  1267  1689  1690    1
  1268  1689  1691    1
  1269  1689  1692    1
  1270  1693  1694    1
  1271  1693  1695    1
  1272  1693  1696    1
  1273  1697  1698    1
  1274  1697  1699    1
  1275  1697  1700    1
  1276  1701  1702    1
  1277  1701  1703    1
  1278  1701  1704    1
  1279  1705  1706    1
  1280  1705  1707    1
  1281  1705  1708    1
  1282  1709  1710    1
  1283  1709  1711    1
  1284  1709  1712    1
  1285  1713  1714    1
  1286  1713  1715    1
  1287  1713  1716    1
  1288  1717  1718    1
  1289  1717  1719    1
  1290  1717  1720    1
  1291  1721  1722    1
  1292  1721  1723    1
  1293  1721  1724    1
  1294  1725  1726    1
  1295  1725  1727    1
  1296  1725  1728    1
  1297  1729  1730    1
  1298  1729  1731    1
  1299  1729  1732    1
  1300  1733  1734    1
  1301  1733  1735    1
  1302  1733  1736    1
  1303  1737  1738    1
  1304  1737  1739    1
  1305  1737  1740    1
  1306  1741  1742    1
  1307  1741  1743    1
  1308  1741  1744    1
  1309  1745  1746    1
  1310  1745  1747    1
  1311  1745  1748    1
  1312  1749  1750    1
  1313  1749  1751    1
  1314  1749  1752    1
  1315  1753  1754    1
  1316  1753  1755    1
  1317  1753  1756    1
  1318  1757  1758    1
  1319  1757  1759    1
  1320  1757  1760    1
  1321  1761  1762    1
  1322  1761  1763    1
  1323  1761  1764    1
  1324  1765  1766    1
  1325  1765  1767    1
  1326  1765  1768    1
  1327  1769  1770    1
  1328  1769  1771    1
  1329  1769  1772    1
  1330  1773  1774    1
  1331  1773  1775    1
  1332  1773  1776    1
  1333  1777  1778    1
  1334  1777  1779    1
  1335  1777  1780    1
  1336  1781  1782    1
  1337  1781  1783    1
  1338  1781  1784    1
  1339  1785  1786    1
  1340  1785  1787    1
  1341  1785  1788    1
  1342  1789  1790    1
  1343  1789  1791    1
  1344  1789  1792    1
  1345  1793  1794    1
  1346  1793  1795    1
  1347  1793  1796    1
  1348  1797  1798    1
  1349  1797  1799    1
  1350  1797  1800    1
  1351  1801  1802    1
  1352  1801  1803    1
  1353  1801  1804    1
  1354  1805  1806    1
  1355  1805  1807    1
  1356  1805  1808    1
  1357  1809  1810    1
  1358  1809  1811    1
  1359  1809  1812    1
  1360  1813  1814    1
  1361  1813  1815    1
  1362  1813  1816    1
  1363  1817  1818    1
  1364  1817  1819    1
  1365  1817  1820    1
  1366  1821  1822    1
  1367  1821  1823    1
  1368  1821  1824    1
  1369  1825  1826    1
  1370  1825  1827    1
  1371  1825  1828    1
  1372  1829  1830    1
  1373  1829  1831    1
  1374  1829  1832    1
  1375  1833  1834    1
  1376  1833  1835    1
  1377  1833  1836    1
  1378  1837  1838    1
  1379  1837  1839    1
  1380  1837  1840    1
  1381  1841  1842    1
  1382  1841  1843    1
  1383  1841  1844    1
  1384  1845  1846    1
  1385  1845  1847    1
  1386  1845  1848    1
  1387  1849  1850    1
  1388  1849  1851    1
  1389  1849  1852    1
  1390  1853  1854    1
  1391  1853  1855    1
  1392  1853  1856    1
  1393  1857  1858    1
  1394  1857  1859    1
  1395  1857  1860    1
  1396  1861  1862    1
  1397  1861  1863    1
  1398  1861  1864    1
  1399  1865  1866    1
  1400  1865  1867    1
  1401  1865  1868    1
  1402  1869  1870    1
  1403  1869  1871    1
  1404  1869  1872    1
  1405  1873  1874    1
  1406  1873  1875    1
  1407  1873  1876    1
  1408  1877  1878    1
  1409  1877  1879    1
  1410  1877  1880    1
  1411  1881  1882    1
  1412  1881  1883    1
  1413  1881  1884    1
  1414  1885  1886    1
  1415  1885  1887    1
  1416  1885  1888    1
  1417  1889  1890    1
  1418  1889  1891    1
  1419  1889  1892    1
  1420  1893  1894    1
  1421  1893  1895    1
  1422  1893  1896    1
  1423  1897  1898    1
  1424  1897  1899    1
  1425  1897  1900    1
  1426  1901  1902    1
  1427  1901  1903    1
  1428  1901  1904    1
  1429  1905  1906    1
  1430  1905  1907    1
  1431  1905  1908    1
  1432  1909  1910    1
  1433  1909  1911    1
  1434  1909  1912    1
  1435  1913  1914    1
  1436  1913  1915    1
  1437  1913  1916    1
  1438  1917  1918    1
  1439  1917  1919    1
  1440  1917  1920    1
  1441  1921  1922    1
  1442  1921  1923    1
  1443  1921  1924    1
  1444  1925  1926    1
  1445  1925  1927    1
  1446  1925  1928    1
  1447  1929  1930    1
  1448  1929  1931    1
  1449  1929  1932    1
  1450  1933  1934    1
  1451  1933  1935    1
  1452  1933  1936    1
  1453  1937  1938    1
  1454  1937  1939    1
  1455  1937  1940    1
  1456  1941  1942    1
  1457  1941  1943    1
  1458  1941  1944    1
  1459  1945  1946    1
  1460  1945  1947    1
  1461  1945  1948    1
  1462  1949  1950    1
  1463  1949  1951    1
  1464  1949  1952    1
  1465  1953  1954    1
  1466  1953  1955    1
  1467  1953  1956    1
  1468  1957  1958    1
  1469  1957  1959    1
  1470  1957  1960    1
  1471  1961  1962    1
  1472  1961  1963    1
  1473  1961  1964    1
  1474  1965  1966    1
  1475  1965  1967    1
  1476  1965  1968    1
  1477  1969  1970    1
  1478  1969  1971    1
  1479  1969  1972    1
  1480  1973  1974    1
  1481  1973  1975    1
  1482  1973  1976    1
  1483  1977  1978    1
  1484  1977  1979    1
  1485  1977  1980    1
  1486  1981  1982    1
  1487  1981  1983    1
  1488  1981  1984    1
  1489  1985  1986    1
  1490  1985  1987    1
  1491  1985  1988    1
  1492  1989  1990    1
  1493  1989  1991    1
  1494  1989  1992    1
  1495  1993  1994    1
  1496  1993  1995    1
  1497  1993  1996    1
  1498  1997  1998    1
  1499  1997  1999    1
  1500  1997  2000    1
  1501  2001  2002    1
  1502  2001  2003    1
  1503  2001  2004    1
  1504  2005  2006    1
  1505  2005  2007    1
  1506  2005  2008    1
  1507  2009  2010    1
  1508  2009  2011    1
  1509  2009  2012    1
  1510  2013  2014    1
  1511  2013  2015    1
  1512  2013  2016    1
  1513  2017  2018    1
  1514  2017  2019    1
  1515  2017  2020    1
  1516  2021  2022    1
  1517  2021  2023    1
  1518  2021  2024    1
  1519  2025  2026    1
  1520  2025  2027    1
  1521  2025  2028    1
  1522  2029  2030    1
  1523  2029  2031    1
  1524  2029  2032    1
  1525  2033  2034    1
  1526  2033  2035    1
  1527  2033  2036    1
  1528  2037  2038    1
  1529  2037  2039    1
  1530  2037  2040    1
  1531  2041  2042    1
  1532  2041  2043    1
  1533  2041  2044    1
  1534  2045  2046    1
  1535  2045  2047    1
  1536  2045  2048    1
  1537  2049  2050    1
  1538  2049  2051    1
  1539  2049  2052    1
  1540  2053  2054    1
  1541  2053  2055    1
  1542  2053  2056    1
  1543  2057  2058    1
  1544  2057  2059    1
  1545  2057  2060    1
  1546  2061  2062    1
  1547  2061  2063    1
  1548  2061  2064    1
  1549  2065  2066    1
  1550  2065  2067    1
  1551  2065  2068    1
  1552  2069  2070    1
  1553  2069  2071    1
  1554  2069  2072    1
  1555  2073  2074    1
  1556  2073  2075    1
  1557  2073  2076    1
  1558  2077  2078    1
  1559  2077  2079    1
  1560  2077  2080    1
  1561  2081  2082    1
  1562  2081  2083    1
  1563  2081  2084    1
  1564  2085  2086    1
  1565  2085  2087    1
  1566  2085  2088    1
  1567  2089  2090    1
  1568  2089  2091    1
  1569  2089  2092    1
  1570  2093  2094    1
  1571  2093  2095    1
  1572  2093  2096    1
  1573  2097  2098    1
  1574  2097  2099    1
  1575  2097  2100    1
  1576  2101  2102    1
  1577  2101  2103    1
  1578  2101  2104    1
  1579  2105  2106    1
  1580  2105  2107    1
  1581  2105  2108    1
  1582  2109  2110    1
  1583  2109  2111    1
  1584  2109  2112    1
  1585  2113  2114    1
  1586  2113  2115    1
  1587  2113  2116    1
  1588  2117  2118    1
  1589  2117  2119    1
  1590  2117  2120    1
  1591  2121  2122    1
  1592  2121  2123    1
  1593  2121  2124    1
  1594  2125  2126    1
  1595  2125  2127    1
  1596  2125  2128    1
  1597  2129  2130    1
  1598  2129  2131    1
  1599  2129  2132    1
  1600  2133  2134    1
  1601  2133  2135    1
  1602  2133  2136    1
  1603  2137  2138    1
  1604  2137  2139    1
  1605  2137  2140    1
  1606  2141  2142    1
  1607  2141  2143    1
  1608  2141  2144    1
  1609  2145  2146    1
  1610  2145  2147    1
  1611  2145  2148    1
  1612  2149  2150    1
  1613  2149  2151    1
  1614  2149  2152    1
  1615  2153  2154    1
  1616  2153  2155    1
  1617  2153  2156    1
  1618  2157  2158    1
  1619  2157  2159    1
  1620  2157  2160    1
  1621  2161  2162    1
  1622  2161  2163    1
  1623  2161  2164    1
  1624  2165  2166    1
  1625  2165  2167    1
  1626  2165  2168    1
  1627  2169  2170    1
  1628  2169  2171    1
  1629  2169  2172    1
  1630  2173  2174    1
  1631  2173  2175    1
  1632  2173  2176    1
  1633  2177  2178    1
  1634  2177  2179    1
  1635  2177  2180    1
  1636  2181  2182    1
  1637  2181  2183    1
  1638  2181  2184    1
  1639  2185  2186    1
  1640  2185  2187    1
  1641  2185  2188    1
  1642  2189  2190    1
  1643  2189  2191    1
  1644  2189  2192    1
  1645  2193  2194    1
  1646  2193  2195    1
  1647  2193  2196    1
  1648  2197  2198    1
  1649  2197  2199    1
  1650  2197  2200    1
  1651  2201  2202    1
  1652  2201  2203    1
  1653  2201  2204    1
  1654  2205  2206    1
  1655  2205  2207    1
  1656  2205  2208    1
  1657  2209  2210    1
  1658  2209  2211    1
  1659  2209  2212    1
  1660  2213  2214    1
  1661  2213  2215    1
  1662  2213  2216    1
  1663  2217  2218    1
  1664  2217  2219    1
  1665  2217  2220    1
  1666  2221  2222    1
  1667  2221  2223    1
  1668  2221  2224    1
  1669  2225  2226    1
  1670  2225  2227    1
  1671  2225  2228    1
  1672  2229  2230    1
  1673  2229  2231    1
  1674  2229  2232    1
  1675  2233  2234    1
  1676  2233  2235    1
  1677  2233  2236    1
  1678  2237  2238    1
  1679  2237  2239    1
  1680  2237  2240    1
  1681  2241  2242    1
  1682  2241  2243    1
  1683  2241  2244    1
  1684  2245  2246    1
  1685  2245  2247    1
  1686  2245  2248    1
  1687  2249  2250    1
  1688  2249  2251    1
  1689  2249  2252    1
  1690  2253  2254    1
  1691  2253  2255    1
  1692  2253  2256    1
  1693  2257  2258    1
  1694  2257  2259    1
  1695  2257  2260    1
  1696  2261  2262    1
  1697  2261  2263    1
  1698  2261  2264    1
  1699  2265  2266    1
  1700  2265  2267    1
  1701  2265  2268    1
  1702  2269  2270    1
  1703  2269  2271    1
  1704  2269  2272    1
  1705  2273  2274    1
  1706  2273  2275    1
  1707  2273  2276    1
  1708  2277  2278    1
  1709  2277  2279    1
  1710  2277  2280    1
  1711  2281  2282    1
  1712  2281  2283    1
  1713  2281  2284    1
  1714  2285  2286    1
  1715  2285  2287    1
  1716  2285  2288    1
  1717  2289  2290    1
  1718  2289  2291    1
  1719  2289  2292    1
  1720  2293  2294    1
  1721  2293  2295    1
  1722  2293  2296    1
  1723  2297  2298    1
  1724  2297  2299    1
  1725  2297  2300    1
  1726  2301  2302    1
  1727  2301  2303    1
  1728  2301  2304    1
  1729  2305  2306    1
  1730  2305  2307    1
  1731  2305  2308    1
  1732  2309  2310    1
  1733  2309  2311    1
  1734  2309  2312    1
  1735  2313  2314    1
  1736  2313  2315    1
  1737  2313  2316    1
  1738  2317  2318    1
  1739  2317  2319    1
  1740  2317  2320    1
  1741  2321  2322    1
  1742  2321  2323    1
  1743  2321  2324    1
  1744  2325  2326    1
  1745  2325  2327    1
  1746  2325  2328    1
  1747  2329  2330    1
  1748  2329  2331    1
  1749  2329  2332    1
  1750  2333  2334    1
  1751  2333  2335    1
  1752  2333  2336    1
  1753  2337  2338    1
  1754  2337  2339    1
  1755  2337  2340    1
  1756  2341  2342    1
  1757  2341  2343    1
  1758  2341  2344    1
  1759  2345  2346    1
  1760  2345  2347    1
  1761  2345  2348    1
  1762  2349  2350    1
  1763  2349  2351    1
  1764  2349  2352    1
  1765  2353  2354    1
  1766  2353  2355    1
  1767  2353  2356    1
  1768  2357  2358    1
  1769  2357  2359    1
  1770  2357  2360    1
  1771  2361  2362    1
  1772  2361  2363    1
  1773  2361  2364    1
  1774  2365  2366    1
  1775  2365  2367    1
  1776  2365  2368    1
  1777  2369  2370    1
  1778  2369  2371    1
  1779  2369  2372    1
  1780  2373  2374    1
  1781  2373  2375    1
  1782  2373  2376    1
  1783  2377  2378    1
  1784  2377  2379    1
  1785  2377  2380    1
  1786  2381  2382    1
  1787  2381  2383    1
  1788  2381  2384    1
  1789  2385  2386    1
  1790  2385  2387    1
  1791  2385  2388    1
  1792  2389  2390    1
  1793  2389  2391    1
  1794  2389  2392    1
  1795  2393  2394    1
  1796  2393  2395    1
  1797  2393  2396    1
  1798  2397  2398    1
  1799  2397  2399    1
  1800  2397  2400    1
  1801  2401  2402    1
  1802  2401  2403    1
  1803  2401  2404    1
  1804  2405  2406    1
  1805  2405  2407    1
  1806  2405  2408    1
  1807  2409  2410    1
  1808  2409  2411    1
  1809  2409  2412    1
  1810  2413  2414    1
  1811  2413  2415    1
  1812  2413  2416    1
  1813  2417  2418    1
  1814  2417  2419    1
  1815  2417  2420    1
  1816  2421  2422    1
  1817  2421  2423    1
  1818  2421  2424    1
  1819  2425  2426    1
  1820  2425  2427    1
  1821  2425  2428    1
  1822  2429  2430    1
  1823  2429  2431    1
  1824  2429  2432    1
  1825  2433  2434    1
  1826  2433  2435    1
  1827  2433  2436    1
  1828  2437  2438    1
  1829  2437  2439    1
  1830  2437  2440    1
  1831  2441  2442    1
  1832  2441  2443    1
  1833  2441  2444    1
  1834  2445  2446    1
  1835  2445  2447    1
  1836  2445  2448    1
  1837  2449  2450    1
  1838  2449  2451    1
  1839  2449  2452    1
  1840  2453  2454    1
  1841  2453  2455    1
  1842  2453  2456    1
  1843  2457  2458    1
  1844  2457  2459    1
  1845  2457  2460    1
  1846  2461  2462    1
  1847  2461  2463    1
  1848  2461  2464    1
  1849  2465  2466    1
  1850  2465  2467    1
  1851  2465  2468    1
  1852  2469  2470    1
  1853  2469  2471    1
  1854  2469  2472    1
  1855  2473  2474    1
  1856  2473  2475    1
  1857  2473  2476    1
  1858  2477  2478    1
  1859  2477  2479    1
  1860  2477  2480    1
  1861  2481  2482    1
  1862  2481  2483    1
  1863  2481  2484    1
  1864  2485  2486    1
  1865  2485  2487    1
  1866  2485  2488    1
  1867  2489  2490    1
  1868  2489  2491    1
  1869  2489  2492    1
  1870  2493  2494    1
  1871  2493  2495    1
  1872  2493  2496    1
  1873  2497  2498    1
  1874  2497  2499    1
  1875  2497  2500    1
  1876  2501  2502    1
  1877  2501  2503    1
  1878  2501  2504    1
  1879  2505  2506    1
  1880  2505  2507    1
  1881  2505  2508    1
  1882  2509  2510    1
  1883  2509  2511    1
  1884  2509  2512    1
  1885  2513  2514    1
  1886  2513  2515    1
  1887  2513  2516    1
  1888  2517  2518    1
  1889  2517  2519    1
  1890  2517  2520    1
  1891  2521  2522    1
  1892  2521  2523    1
  1893  2521  2524    1
  1894  2525  2526    1
  1895  2525  2527    1
  1896  2525  2528    1
  1897  2529  2530    1
  1898  2529  2531    1
  1899  2529  2532    1
  1900  2533  2534    1
  1901  2533  2535    1
  1902  2533  2536    1
  1903  2537  2538    1
  1904  2537  2539    1
  1905  2537  2540    1
  1906  2541  2542    1
  1907  2541  2543    1
  1908  2541  2544    1
  1909  2545  2546    1
  1910  2545  2547    1
  1911  2545  2548    1
  1912  2549  2550    1
  1913  2549  2551    1
  1914  2549  2552    1
  1915  2553  2554    1
  1916  2553  2555    1
  1917  2553  2556    1
  1918  2557  2558    1
  1919  2557  2559    1
  1920  2557  2560    1
  1921  2561  2562    1
  1922  2561  2563    1
  1923  2561  2564    1
  1924  2565  2566    1
  1925  2565  2567    1
  1926  2565  2568    1
  1927  2569  2570    1
  1928  2569  2571    1
  1929  2569  2572    1
  1930  2573  2574    1
  1931  2573  2575    1
  1932  2573  2576    1
  1933  2577  2578    1
  1934  2577  2579    1
  1935  2577  2580    1
  1936  2581  2582    1
  1937  2581  2583    1
  1938  2581  2584    1
  1939  2585  2586    1
  1940  2585  2587    1
  1941  2585  2588    1
  1942  2589  2590    1
  1943  2589  2591    1
  1944  2589  2592    1
  1945  2593  2594    1
  1946  2593  2595    1
  1947  2593  2596    1
  1948  2597  2598    1
  1949  2597  2599    1
  1950  2597  2600    1
  1951  2601  2602    1
  1952  2601  2603    1
  1953  2601  2604    1
  1954  2605  2606    1
  1955  2605  2607    1
  1956  2605  2608    1
  1957  2609  2610    1
  1958  2609  2611    1
  1959  2609  2612    1
  1960  2613  2614    1
  1961  2613  2615    1
  1962  2613  2616    1
  1963  2617  2618    1
  1964  2617  2619    1
  1965  2617  2620    1
  1966  2621  2622    1
  1967  2621  2623    1
  1968  2621  2624    1
  1969  2625  2626    1
  1970  2625  2627    1
  1971  2625  2628    1
  1972  2629  2630    1
  1973  2629  2631    1
  1974  2629  2632    1
  1975  2633  2634    1
  1976  2633  2635    1
  1977  2633  2636    1
  1978  2637  2638    1
  1979  2637  2639    1
  1980  2637  2640    1
  1981  2641  2642    1
  1982  2641  2643    1
  1983  2641  2644    1
  1984  2645  2646    1
  1985  2645  2647    1
  1986  2645  2648    1
  1987  2649  2650    1
  1988  2649  2651    1
  1989  2649  2652    1
  1990  2653  2654    1
  1991  2653  2655    1
  1992  2653  2656    1
  1993  2657  2658    1
  1994  2657  2659    1
  1995  2657  2660    1
  1996  2661  2662    1
  1997  2661  2663    1
  1998  2661  2664    1
  1999  2665  2666    1
  2000  2665  2667    1
  2001  2665  2668    1
  2002  2669  2670    1
  2003  2669  2671    1
  2004  2669  2672    1
  2005  2673  2674    1
  2006  2673  2675    1
  2007  2673  2676    1
  2008  2677  2678    1
  2009  2677  2679    1
  2010  2677  2680    1
  2011  2681  2682    1
  2012  2681  2683    1
  2013  2681  2684    1
  2014  2685  2686    1
  2015  2685  2687    1
  2016  2685  2688    1
  2017  2689  2690    1
  2018  2689  2691    1
  2019  2689  2692    1
  2020  2693  2694    1
  2021  2693  2695    1
  2022  2693  2696    1
  2023  2697  2698    1
  2024  2697  2699    1
  2025  2697  2700    1
  2026  2701  2702    1
  2027  2701  2703    1
  2028  2701  2704    1
  2029  2705  2706    1
  2030  2705  2707    1
  2031  2705  2708    1
  2032  2709  2710    1
  2033  2709  2711    1
  2034  2709  2712    1
  2035  2713  2714    1
  2036  2713  2715    1
  2037  2713  2716    1
  2038  2717  2718    1
  2039  2717  2719    1
  2040  2717  2720    1
  2041  2721  2722    1
  2042  2721  2723    1
  2043  2721  2724    1
  2044  2725  2726    1
  2045  2725  2727    1
  2046  2725  2728    1
  2047  2729  2730    1
  2048  2729  2731    1
  2049  2729  2732    1
  2050  2733  2734    1
  2051  2733  2735    1
  2052  2733  2736    1
  2053  2737  2738    1
  2054  2737  2739    1
  2055  2737  2740    1
  2056  2741  2742    1
  2057  2741  2743    1
  2058  2741  2744    1
  2059  2745  2746    1
  2060  2745  2747    1
  2061  2745  2748    1
  2062  2749  2750    1
  2063  2749  2751    1
  2064  2749  2752    1
  2065  2753  2754    1
  2066  2753  2755    1
  2067  2753  2756    1
  2068  2757  2758    1
  2069  2757  2759    1
  2070  2757  2760    1
  2071  2761  2762    1
  2072  2761  2763    1
  2073  2761  2764    1
  2074  2765  2766    1
  2075  2765  2767    1
  2076  2765  2768    1
  2077  2769  2770    1
  2078  2769  2771    1
  2079  2769  2772    1
  2080  2773  2774    1
  2081  2773  2775    1
  2082  2773  2776    1
  2083  2777  2778    1
  2084  2777  2779    1
  2085  2777  2780    1
  2086  2781  2782    1
  2087  2781  2783    1
  2088  2781  2784    1
  2089  2785  2786    1
  2090  2785  2787    1
  2091  2785  2788    1
  2092  2789  2790    1
  2093  2789  2791    1
  2094  2789  2792    1
  2095  2793  2794    1
  2096  2793  2795    1
  2097  2793  2796    1
  2098  2797  2798    1
  2099  2797  2799    1
  2100  2797  2800    1
  2101  2801  2802    1
  2102  2801  2803    1
  2103  2801  2804    1
  2104  2805  2806    1
  2105  2805  2807    1
  2106  2805  2808    1
  2107  2809  2810    1
  2108  2809  2811    1
  2109  2809  2812    1
  2110  2813  2814    1
  2111  2813  2815    1
  2112  2813  2816    1
  2113  2817  2818    1
  2114  2817  2819    1
  2115  2817  2820    1
  2116  2821  2822    1
  2117  2821  2823    1
  2118  2821  2824    1
  2119  2825  2826    1
  2120  2825  2827    1
  2121  2825  2828    1
  2122  2829  2830    1
  2123  2829  2831    1
  2124  2829  2832    1
  2125  2833  2834    1
  2126  2833  2835    1
  2127  2833  2836    1
  2128  2837  2838    1
  2129  2837  2839    1
  2130  2837  2840    1
  2131  2841  2842    1
  2132  2841  2843    1
  2133  2841  2844    1
  2134  2845  2846    1
  2135  2845  2847    1
  2136  2845  2848    1
  2137  2849  2850    1
  2138  2849  2851    1
  2139  2849  2852    1
  2140  2853  2854    1
  2141  2853  2855    1
  2142  2853  2856    1
  2143  2857  2858    1
  2144  2857  2859    1
  2145  2857  2860    1
  2146  2861  2862    1
  2147  2861  2863    1
  2148  2861  2864    1
  2149  2865  2866    1
  2150  2865  2867    1
  2151  2865  2868    1
  2152  2869  2870    1
  2153  2869  2871    1
  2154  2869  2872    1
  2155  2873  2874    1
  2156  2873  2875    1
  2157  2873  2876    1
  2158  2877  2878    1
  2159  2877  2879    1
  2160  2877  2880    1
  2161  2881  2882    1
  2162  2881  2883    1
  2163  2881  2884    1
  2164  2885  2886    1
  2165  2885  2887    1
  2166  2885  2888    1
  2167  2889  2890    1
  2168  2889  2891    1
  2169  2889  2892    1
  2170  2893  2894    1
  2171  2893  2895    1
  2172  2893  2896    1
  2173  2897  2898    1
  2174  2897  2899    1
  2175  2897  2900    1
  2176  2901  2902    1
  2177  2901  2903    1
  2178  2901  2904    1
  2179  2905  2906    1
  2180  2905  2907    1
  2181  2905  2908    1
  2182  2909  2910    1
  2183  2909  2911    1
  2184  2909  2912    1
  2185  2913  2914    1
  2186  2913  2915    1
  2187  2913  2916    1
  2188  2917  2918    1
  2189  2917  2919    1
  2190  2917  2920    1
  2191  2921  2922    1
  2192  2921  2923    1
  2193  2921  2924    1
  2194  2925  2926    1
  2195  2925  2927    1
  2196  2925  2928    1
  2197  2929  2930    1
  2198  2929  2931    1
  2199  2929  2932    1
  2200  2933  2934    1
  2201  2933  2935    1
  2202  2933  2936    1
  2203  2937  2938    1
  2204  2937  2939    1
  2205  2937  2940    1
  2206  2941  2942    1
  2207  2941  2943    1
  2208  2941  2944    1
  2209  2945  2946    1
  2210  2945  2947    1
  2211  2945  2948    1
  2212  2949  2950    1
  2213  2949  2951    1
  2214  2949  2952    1
  2215  2953  2954    1
  2216  2953  2955    1
  2217  2953  2956    1
  2218  2957  2958    1
  2219  2957  2959    1
  2220  2957  2960    1
  2221  2961  2962    1
  2222  2961  2963    1
  2223  2961  2964    1
  2224  2965  2966    1
  2225  2965  2967    1
  2226  2965  2968    1
  2227  2969  2970    1
  2228  2969  2971    1
  2229  2969  2972    1
  2230  2973  2974    1
  2231  2973  2975    1
  2232  2973  2976    1
  2233  2977  2978    1
  2234  2977  2979    1
  2235  2977  2980    1
  2236  2981  2982    1
  2237  2981  2983    1
  2238  2981  2984    1
  2239  2985  2986    1
  2240  2985  2987    1
  2241  2985  2988    1
  2242  2989  2990    1
  2243  2989  2991    1
  2244  2989  2992    1
  2245  2993  2994    1
  2246  2993  2995    1
  2247  2993  2996    1
  2248  2997  2998    1
  2249  2997  2999    1
  2250  2997  3000    1
  2251  3001  3002    1
  2252  3001  3003    1
  2253  3001  3004    1
  2254  3005  3006    1
  2255  3005  3007    1
  2256  3005  3008    1
  2257  3009  3010    1
  2258  3009  3011    1
  2259  3009  3012    1
  2260  3013  3014    1
  2261  3013  3015    1
  2262  3013  3016    1
  2263  3017  3018    1
  2264  3017  3019    1
  2265  3017  3020    1
  2266  3021  3022    1
  2267  3021  3023    1
  2268  3021  3024    1
  2269  3025  3026    1
  2270  3025  3027    1
  2271  3025  3028    1
  2272  3029  3030    1
  2273  3029  3031    1
  2274  3029  3032    1
  2275  3033  3034    1
  2276  3033  3035    1
  2277  3033  3036    1
  2278  3037  3038    1
  2279  3037  3039    1
  2280  3037  3040    1
  2281  3041  3042    1
  2282  3041  3043    1
  2283  3041  3044    1
  2284  3045  3046    1
  2285  3045  3047    1
  2286  3045  3048    1
  2287  3049  3050    1
  2288  3049  3051    1
  2289  3049  3052    1
  2290  3053  3054    1
  2291  3053  3055    1
  2292  3053  3056    1
  2293  3057  3058    1
  2294  3057  3059    1
  2295  3057  3060    1
  2296  3061  3062    1
  2297  3061  3063    1
  2298  3061  3064    1
  2299  3065  3066    1
  2300  3065  3067    1
  2301  3065  3068    1
  2302  3069  3070    1
  2303  3069  3071    1
  2304  3069  3072    1
  2305  3073  3074    1
  2306  3073  3075    1
  2307  3073  3076    1
  2308  3077  3078    1
  2309  3077  3079    1
  2310  3077  3080    1
  2311  3081  3082    1
  2312  3081  3083    1
  2313  3081  3084    1
  2314  3085  3086    1
  2315  3085  3087    1
  2316  3085  3088    1
  2317  3089  3090    1
  2318  3089  3091    1
  2319  3089  3092    1
  2320  3093  3094    1
  2321  3093  3095    1
  2322  3093  3096    1
  2323  3097  3098    1
  2324  3097  3099    1
  2325  3097  3100    1
  2326  3101  3102    1
  2327  3101  3103    1
  2328  3101  3104    1
  2329  3105  3106    1
  2330  3105  3107    1
  2331  3105  3108    1
  2332  3109  3110    1
  2333  3109  3111    1
  2334  3109  3112    1
  2335  3113  3114    1
  2336  3113  3115    1
  2337  3113  3116    1
  2338  3117  3118    1
  2339  3117  3119    1
  2340  3117  3120    1
  2341  3121  3122    1
  2342  3121  3123    1
  2343  3121  3124    1
  2344  3125  3126    1
  2345  3125  3127    1
  2346  3125  3128    1
  2347  3129  3130    1
  2348  3129  3131    1
  2349  3129  3132    1
  2350  3133  3134    1
  2351  3133  3135    1
  2352  3133  3136    1
  2353  3137  3138    1
  2354  3137  3139    1
  2355  3137  3140    1
  2356  3141  3142    1
  2357  3141  3143    1
  2358  3141  3144    1
  2359  3145  3146    1
  2360  3145  3147    1
  2361  3145  3148    1
  2362  3149  3150    1
  2363  3149  3151    1
  2364  3149  3152    1
  2365  3153  3154    1
  2366  3153  3155    1
  2367  3153  3156    1
  2368  3157  3158    1
  2369  3157  3159    1
  2370  3157  3160    1
  2371  3161  3162    1
  2372  3161  3163    1
  2373  3161  3164    1
  2374  3165  3166    1
  2375  3165  3167    1
  2376  3165  3168    1
  2377  3169  3170    1
  2378  3169  3171    1
  2379  3169  3172    1
  2380  3173  3174    1
  2381  3173  3175    1
  2382  3173  3176    1
  2383  3177  3178    1
  2384  3177  3179    1
  2385  3177  3180    1
  2386  3181  3182    1
  2387  3181  3183    1
  2388  3181  3184    1
  2389  3185  3186    1
  2390  3185  3187    1
  2391  3185  3188    1
  2392  3189  3190    1
  2393  3189  3191    1
  2394  3189  3192    1
  2395  3193  3194    1
  2396  3193  3195    1
  2397  3193  3196    1
  2398  3197  3198    1
  2399  3197  3199    1
  2400  3197  3200    1
  2401  3201  3202    1
  2402  3201  3203    1
  2403  3201  3204    1
  2404  3205  3206    1
  2405  3205  3207    1
  2406  3205  3208    1
  2407  3209  3210    1
  2408  3209  3211    1
  2409  3209  3212    1
  2410  3213  3214    1
  2411  3213  3215    1
  2412  3213  3216    1
  2413  3217  3218    1
  2414  3217  3219    1
  2415  3217  3220    1
  2416  3221  3222    1
  2417  3221  3223    1
  2418  3221  3224    1
  2419  3225  3226    1
  2420  3225  3227    1
  2421  3225  3228    1
  2422  3229  3230    1
  2423  3229  3231    1
  2424  3229  3232    1
  2425  3233  3234    1
  2426  3233  3235    1
  2427  3233  3236    1
  2428  3237  3238    1
  2429  3237  3239    1
  2430  3237  3240    1
  2431  3241  3242    1
  2432  3241  3243    1
  2433  3241  3244    1
  2434  3245  3246    1
  2435  3245  3247    1
  2436  3245  3248    1
  2437  3249  3250    1
  2438  3249  3251    1
  2439  3249  3252    1
  2440  3253  3254    1
  2441  3253  3255    1
  2442  3253  3256    1
  2443  3257  3258    1
  2444  3257  3259    1
  2445  3257  3260    1
  2446  3261  3262    1
  2447  3261  3263    1
  2448  3261  3264    1
  2449  3265  3266    1
  2450  3265  3267    1
  2451  3265  3268    1
  2452  3269  3270    1
  2453  3269  3271    1
  2454  3269  3272    1
  2455  3273  3274    1
  2456  3273  3275    1
  2457  3273  3276    1
  2458  3277  3278    1
  2459  3277  3279    1
  2460  3277  3280    1
  2461  3281  3282    1
  2462  3281  3283    1
  2463  3281  3284    1
  2464  3285  3286    1
  2465  3285  3287    1
  2466  3285  3288    1
  2467  3289  3290    1
  2468  3289  3291    1
  2469  3289  3292    1
  2470  3293  3294    1
  2471  3293  3295    1
  2472  3293  3296    1
  2473  3297  3298    1
  2474  3297  3299    1
  2475  3297  3300    1
  2476  3301  3302    1
  2477  3301  3303    1
  2478  3301  3304    1
  2479  3305  3306    1
  2480  3305  3307    1
  2481  3305  3308    1
  2482  3309  3310    1
  2483  3309  3311    1
  2484  3309  3312    1
  2485  3313  3314    1
  2486  3313  3315    1
  2487  3313  3316    1
  2488  3317  3318    1
  2489  3317  3319    1
  2490  3317  3320    1
  2491  3321  3322    1
  2492  3321  3323    1
  2493  3321  3324    1
  2494  3325  3326    1
  2495  3325  3327    1
  2496  3325  3328    1
  2497  3329  3330    1
  2498  3329  3331    1
  2499  3329  3332    1
  2500  3333  3334    1
  2501  3333  3335    1
  2502  3333  3336    1
  2503  3337  3338    1
  2504  3337  3339    1
  2505  3337  3340    1
  2506  3341  3342    1
  2507  3341  3343    1
  2508  3341  3344    1
  2509  3345  3346    1
  2510  3345  3347    1
  2511  3345  3348    1
  2512  3349  3350    1
  2513  3349  3351    1
  2514  3349  3352    1
  2515  3353  3354    1
  2516  3353  3355    1
  2517  3353  3356    1
  2518  3357  3358    1
  2519  3357  3359    1
  2520  3357  3360    1
  2521  3361  3362    1
  2522  3361  3363    1
  2523  3361  3364    1
  2524  3365  3366    1
  2525  3365  3367    1
  2526  3365  3368    1
  2527  3369  3370    1
  2528  3369  3371    1
  2529  3369  3372    1
  2530  3373  3374    1
  2531  3373  3375    1
  2532  3373  3376    1
  2533  3377  3378    1
  2534  3377  3379    1
  2535  3377  3380    1
  2536  3381  3382    1
  2537  3381  3383    1
  2538  3381  3384    1
  2539  3385  3386    1
  2540  3385  3387    1
  2541  3385  3388    1
  2542  3389  3390    1
  2543  3389  3391    1
  2544  3389  3392    1
  2545  3393  3394    1
  2546  3393  3395    1
  2547  3393  3396    1
  2548  3397  3398    1
  2549  3397  3399    1
  2550  3397  3400    1
  2551  3401  3402    1
  2552  3401  3403    1
  2553  3401  3404    1
  2554  3405  3406    1
  2555  3405  3407    1
  2556  3405  3408    1
  2557  3409  3410    1
  2558  3409  3411    1
  2559  3409  3412    1
  2560  3413  3414    1
  2561  3413  3415    1
  2562  3413  3416    1
  2563  3417  3418    1
  2564  3417  3419    1
  2565  3417  3420    1
  2566  3421  3422    1
  2567  3421  3423    1
  2568  3421  3424    1
  2569  3425  3426    1
  2570  3425  3427    1
  2571  3425  3428    1
  2572  3429  3430    1
  2573  3429  3431    1
  2574  3429  3432    1
  2575  3433  3434    1
  2576  3433  3435    1
  2577  3433  3436    1
  2578  3437  3438    1
  2579  3437  3439    1
  2580  3437  3440    1
  2581  3441  3442    1
  2582  3441  3443    1
  2583  3441  3444    1
  2584  3445  3446    1
  2585  3445  3447    1
  2586  3445  3448    1
  2587  3449  3450    1
  2588  3449  3451    1
  2589  3449  3452    1
  2590  3453  3454    1
  2591  3453  3455    1
  2592  3453  3456    1
  2593  3457  3458    1
  2594  3457  3459    1
  2595  3457  3460    1
  2596  3461  3462    1
  2597  3461  3463    1
  2598  3461  3464    1
  2599  3465  3466    1
  2600  3465  3467    1
  2601  3465  3468    1
  2602  3469  3470    1
  2603  3469  3471    1
  2604  3469  3472    1
  2605  3473  3474    1
  2606  3473  3475    1
  2607  3473  3476    1
  2608  3477  3478    1
  2609  3477  3479    1
  2610  3477  3480    1
  2611  3481  3482    1
  2612  3481  3483    1
  2613  3481  3484    1
  2614  3485  3486    1
  2615  3485  3487    1
  2616  3485  3488    1
  2617  3489  3490    1
  2618  3489  3491    1
  2619  3489  3492    1
  2620  3493  3494    1
  2621  3493  3495    1
  2622  3493  3496    1
  2623  3497  3498    1
  2624  3497  3499    1
  2625  3497  3500    1
  2626  3501  3502    1
  2627  3501  3503    1
  2628  3501  3504    1
  2629  3505  3506    1
  2630  3505  3507    1
  2631  3505  3508    1
  2632  3509  3510    1
  2633  3509  3511    1
  2634  3509  3512    1
  2635  3513  3514    1
  2636  3513  3515    1
  2637  3513  3516    1
  2638  3517  3518    1
  2639  3517  3519    1
  2640  3517  3520    1
  2641  3521  3522    1
  2642  3521  3523    1
  2643  3521  3524    1
  2644  3525  3526    1
  2645  3525  3527    1
  2646  3525  3528    1
  2647  3529  3530    1
  2648  3529  3531    1
  2649  3529  3532    1
  2650  3533  3534    1
  2651  3533  3535    1
  2652  3533  3536    1
  2653  3537  3538    1
  2654  3537  3539    1
  2655  3537  3540    1
  2656  3541  3542    1
  2657  3541  3543    1
  2658  3541  3544    1
  2659  3545  3546    1
  2660  3545  3547    1
  2661  3545  3548    1
  2662  3549  3550    1
  2663  3549  3551    1
  2664  3549  3552    1
  2665  3553  3554    1
  2666  3553  3555    1
  2667  3553  3556    1
  2668  3557  3558    1
  2669  3557  3559    1
  2670  3557  3560    1
  2671  3561  3562    1
  2672  3561  3563    1
  2673  3561  3564    1
  2674  3565  3566    1
  2675  3565  3567    1
  2676  3565  3568    1
  2677  3569  3570    1
  2678  3569  3571    1
  2679  3569  3572    1
  2680  3573  3574    1
  2681  3573  3575    1
  2682  3573  3576    1
  2683  3577  3578    1
  2684  3577  3579    1
  2685  3577  3580    1
  2686  3581  3582    1
  2687  3581  3583    1
  2688  3581  3584    1
  2689  3585  3586    1
  2690  3585  3587    1
  2691  3585  3588    1
  2692  3589  3590    1
  2693  3589  3591    1
  2694  3589  3592    1
  2695  3593  3594    1
  2696  3593  3595    1
  2697  3593  3596    1
  2698  3597  3598    1
  2699  3597  3599    1
  2700  3597  3600    1
  2701  3601  3602    1
  2702  3601  3603    1
  2703  3601  3604    1
  2704  3605  3606    1
  2705  3605  3607    1
  2706  3605  3608    1
  2707  3609  3610    1
  2708  3609  3611    1
  2709  3609  3612    1
  2710  3613  3614    1
  2711  3613  3615    1
  2712  3613  3616    1
  2713  3617  3618    1
  2714  3617  3619    1
  2715  3617  3620    1
  2716  3621  3622    1
  2717  3621  3623    1
  2718  3621  3624    1
  2719  3625  3626    1
  2720  3625  3627    1
  2721  3625  3628    1
  2722  3629  3630    1
  2723  3629  3631    1
  2724  3629  3632    1
  2725  3633  3634    1
  2726  3633  3635    1
  2727  3633  3636    1
  2728  3637  3638    1
  2729  3637  3639    1
  2730  3637  3640    1
  2731  3641  3642    1
  2732  3641  3643    1
  2733  3641  3644    1
  2734  3645  3646    1
  2735  3645  3647    1
  2736  3645  3648    1
  2737  3649  3650    1
  2738  3649  3651    1
  2739  3649  3652    1
  2740  3653  3654    1
  2741  3653  3655    1
  2742  3653  3656    1
  2743  3657  3658    1
  2744  3657  3659    1
  2745  3657  3660    1
  2746  3661  3662    1
  2747  3661  3663    1
  2748  3661  3664    1
  2749  3665  3666    1
  2750  3665  3667    1
  2751  3665  3668    1
  2752  3669  3670    1
  2753  3669  3671    1
  2754  3669  3672    1
  2755  3673  3674    1
  2756  3673  3675    1
  2757  3673  3676    1
  2758  3677  3678    1
  2759  3677  3679    1
  2760  3677  3680    1
  2761  3681  3682    1
  2762  3681  3683    1
  2763  3681  3684    1
  2764  3685  3686    1
  2765  3685  3687    1
  2766  3685  3688    1
  2767  3689  3690    1
  2768  3689  3691    1
  2769  3689  3692    1
  2770  3693  3694    1
  2771  3693  3695    1
  2772  3693  3696    1
  2773  3697  3698    1
  2774  3697  3699    1
  2775  3697  3700    1
  2776  3701  3702    1
  2777  3701  3703    1
  2778  3701  3704    1
  2779  3705  3706    1
  2780  3705  3707    1
  2781  3705  3708    1
  2782  3709  3710    1
  2783  3709  3711    1
  2784  3709  3712    1
  2785  3713  3714    1
  2786  3713  3715    1
  2787  3713  3716    1
  2788  3717  3718    1
  2789  3717  3719    1
  2790  3717  3720    1
  2791  3721  3722    1
  2792  3721  3723    1
  2793  3721  3724    1
  2794  3725  3726    1
  2795  3725  3727    1
  2796  3725  3728    1
  2797  3729  3730    1
  2798  3729  3731    1
  2799  3729  3732    1
  2800  3733  3734    1
  2801  3733  3735    1
  2802  3733  3736    1
  2803  3737  3738    1
  2804  3737  3739    1
  2805  3737  3740    1
  2806  3741  3742    1
  2807  3741  3743    1
  2808  3741  3744    1
  2809  3745  3746    1
  2810  3745  3747    1
  2811  3745  3748    1
  2812  3749  3750    1
  2813  3749  3751    1
  2814  3749  3752    1
  2815  3753  3754    1
  2816  3753  3755    1
  2817  3753  3756    1
  2818  3757  3758    1
  2819  3757  3759    1
  2820  3757  3760    1
  2821  3761  3762    1
  2822  3761  3763    1
  2823  3761  3764    1
  2824  3765  3766    1
  2825  3765  3767    1
  2826  3765  3768    1
  2827  3769  3770    1
  2828  3769  3771    1
  2829  3769  3772    1
  2830  3773  3774    1
  2831  3773  3775    1
  2832  3773  3776    1
  2833  3777  3778    1
  2834  3777  3779    1
  2835  3777  3780    1
  2836  3781  3782    1
  2837  3781  3783    1
  2838  3781  3784    1
  2839  3785  3786    1
  2840  3785  3787    1
  2841  3785  3788    1
  2842  3789  3790    1
  2843  3789  3791    1
  2844  3789  3792    1
  2845  3793  3794    1
  2846  3793  3795    1
  2847  3793  3796    1
  2848  3797  3798    1
  2849  3797  3799    1
  2850  3797  3800    1
  2851  3801  3802    1
  2852  3801  3803    1
  2853  3801  3804    1
  2854  3805  3806    1
  2855  3805  3807    1
  2856  3805  3808    1
  2857  3809  3810    1
  2858  3809  3811    1
  2859  3809  3812    1
  2860  3813  3814    1
  2861  3813  3815    1
  2862  3813  3816    1
  2863  3817  3818    1
  2864  3817  3819    1
  2865  3817  3820    1
  2866  3821  3822    1
  2867  3821  3823    1
  2868  3821  3824    1
  2869  3825  3826    1
  2870  3825  3827    1
  2871  3825  3828    1
  2872  3829  3830    1
  2873  3829  3831    1
  2874  3829  3832    1
  2875  3833  3834    1
  2876  3833  3835    1
  2877  3833  3836    1
  2878  3837  3838    1
  2879  3837  3839    1
  2880  3837  3840    1
  2881  3841  3842    1
  2882  3841  3843    1
  2883  3841  3844    1
  2884  3845  3846    1
  2885  3845  3847    1
  2886  3845  3848    1
  2887  3849  3850    1
  2888  3849  3851    1
  2889  3849  3852    1
  2890  3853  3854    1
  2891  3853  3855    1
  2892  3853  3856    1
  2893  3857  3858    1
  2894  3857  3859    1
  2895  3857  3860    1
  2896  3861  3862    1
  2897  3861  3863    1
  2898  3861  3864    1
  2899  3865  3866    1
  2900  3865  3867    1
  2901  3865  3868    1
  2902  3869  3870    1
  2903  3869  3871    1
  2904  3869  3872    1
  2905  3873  3874    1
  2906  3873  3875    1
  2907  3873  3876    1
  2908  3877  3878    1
  2909  3877  3879    1
  2910  3877  3880    1
  2911  3881  3882    1
  2912  3881  3883    1
  2913  3881  3884    1
  2914  3885  3886    1
  2915  3885  3887    1
  2916  3885  3888    1
  2917  3889  3890    1
  2918  3889  3891    1
  2919  3889  3892    1
  2920  3893  3894    1
  2921  3893  3895    1
  2922  3893  3896    1
  2923  3897  3898    1
  2924  3897  3899    1
  2925  3897  3900    1
  2926  3901  3902    1
  2927  3901  3903    1
  2928  3901  3904    1
  2929  3905  3906    1
  2930  3905  3907    1
  2931  3905  3908    1
  2932  3909  3910    1
  2933  3909  3911    1
  2934  3909  3912    1
  2935  3913  3914    1
  2936  3913  3915    1
  2937  3913  3916    1
  2938  3917  3918    1
  2939  3917  3919    1
  2940  3917  3920    1
  2941  3921  3922    1
  2942  3921  3923    1
  2943  3921  3924    1
  2944  3925  3926    1
  2945  3925  3927    1
  2946  3925  3928    1
  2947  3929  3930    1
  2948  3929  3931    1
  2949  3929  3932    1
  2950  3933  3934    1
  2951  3933  3935    1
  2952  3933  3936    1
  2953  3937  3938    1
  2954  3937  3939    1
  2955  3937  3940    1
  2956  3941  3942    1
  2957  3941  3943    1
  2958  3941  3944    1
  2959  3945  3946    1
  2960  3945  3947    1
  2961  3945  3948    1
  2962  3949  3950    1
  2963  3949  3951    1
  2964  3949  3952    1
  2965  3953  3954    1
  2966  3953  3955    1
  2967  3953  3956    1
  2968  3957  3958    1
  2969  3957  3959    1
  2970  3957  3960    1
  2971  3961  3962    1
  2972  3961  3963    1
  2973  3961  3964    1
  2974  3965  3966    1
  2975  3965  3967    1
  2976  3965  3968    1
  2977  3969  3970    1
  2978  3969  3971    1
  2979  3969  3972    1
  2980  3973  3974    1
  2981  3973  3975    1
  2982  3973  3976    1
  2983  3977  3978    1
  2984  3977  3979    1
  2985  3977  3980    1
  2986  3981  3982    1
  2987  3981  3983    1
  2988  3981  3984    1
  2989  3985  3986    1
  2990  3985  3987    1
  2991  3985  3988    1
  2992  3989  3990    1
  2993  3989  3991    1
  2994  3989  3992    1
  2995  3993  3994    1
  2996  3993  3995    1
  2997  3993  3996    1
  2998  3997  3998    1
  2999  3997  3999    1
  3000  3997  4000    1
  3001  4001  4002    1
  3002  4001  4003    1
  3003  4001  4004    1
  3004  4005  4006    1
  3005  4005  4007    1
  3006  4005  4008    1
  3007  4009  4010    1
  3008  4009  4011    1
  3009  4009  4012    1
  3010  4013  4014    1
  3011  4013  4015    1
  3012  4013  4016    1
  3013  4017  4018    1
  3014  4017  4019    1
  3015  4017  4020    1
  3016  4021  4022    1
  3017  4021  4023    1
  3018  4021  4024    1
  3019  4025  4026    1
  3020  4025  4027    1
  3021  4025  4028    1
  3022  4029  4030    1
  3023  4029  4031    1
  3024  4029  4032    1
  3025  4033  4034    1
  3026  4033  4035    1
  3027  4033  4036    1
  3028  4037  4038    1
  3029  4037  4039    1
  3030  4037  4040    1
  3031  4041  4042    1
  3032  4041  4043    1
  3033  4041  4044    1
  3034  4045  4046    1
  3035  4045  4047    1
  3036  4045  4048    1
  3037  4049  4050    1
  3038  4049  4051    1
  3039  4049  4052    1
  3040  4053  4054    1
  3041  4053  4055    1
  3042  4053  4056    1
  3043  4057  4058    1
  3044  4057  4059    1
  3045  4057  4060    1
  3046  4061  4062    1
  3047  4061  4063    1
  3048  4061  4064    1
  3049  4065  4066    1
  3050  4065  4067    1
  3051  4065  4068    1
  3052  4069  4070    1
  3053  4069  4071    1
  3054  4069  4072    1
  3055  4073  4074    1
  3056  4073  4075    1
  3057  4073  4076    1
  3058  4077  4078    1
  3059  4077  4079    1
  3060  4077  4080    1
  3061  4081  4082    1
  3062  4081  4083    1
  3063  4081  4084    1
  3064  4085  4086    1
  3065  4085  4087    1
  3066  4085  4088    1
  3067  4089  4090    1
  3068  4089  4091    1
  3069  4089  4092    1
  3070  4093  4094    1
  3071  4093  4095    1
  3072  4093  4096    1
  3073  4097  4098    1
  3074  4097  4099    1
  3075  4097  4100    1
  3076  4101  4102    1
  3077  4101  4103    1
  3078  4101  4104    1
  3079  4105  4106    1
  3080  4105  4107    1
  3081  4105  4108    1
  3082  4109  4110    1
  3083  4109  4111    1
  3084  4109  4112    1
  3085  4113  4114    1
  3086  4113  4115    1
  3087  4113  4116    1
  3088  4117  4118    1
  3089  4117  4119    1
  3090  4117  4120    1
  3091  4121  4122    1
  3092  4121  4123    1
  3093  4121  4124    1
  3094  4125  4126    1
  3095  4125  4127    1
  3096  4125  4128    1
  3097  4129  4130    1
  3098  4129  4131    1
  3099  4129  4132    1
  3100  4133  4134    1
  3101  4133  4135    1
  3102  4133  4136    1
  3103  4137  4138    1
  3104  4137  4139    1
  3105  4137  4140    1
  3106  4141  4142    1
  3107  4141  4143    1
  3108  4141  4144    1
  3109  4145  4146    1
  3110  4145  4147    1
  3111  4145  4148    1
  3112  4149  4150    1
  3113  4149  4151    1
  3114  4149  4152    1
  3115  4153  4154    1
  3116  4153  4155    1
  3117  4153  4156    1
  3118  4157  4158    1
  3119  4157  4159    1
  3120  4157  4160    1
  3121  4161  4162    1
  3122  4161  4163    1
  3123  4161  4164    1
  3124  4165  4166    1
  3125  4165  4167    1
  3126  4165  4168    1
  3127  4169  4170    1
  3128  4169  4171    1
  3129  4169  4172    1
  3130  4173  4174    1
  3131  4173  4175    1
  3132  4173  4176    1
  3133  4177  4178    1
  3134  4177  4179    1
  3135  4177  4180    1
  3136  4181  4182    1
  3137  4181  4183    1
  3138  4181  4184    1
  3139  4185  4186    1
  3140  4185  4187    1
  3141  4185  4188    1
  3142  4189  4190    1
  3143  4189  4191    1
  3144  4189  4192    1
  3145  4193  4194    1
  3146  4193  4195    1
  3147  4193  4196    1
  3148  4197  4198    1
  3149  4197  4199    1
  3150  4197  4200    1
  3151  4201  4202    1
  3152  4201  4203    1
  3153  4201  4204    1
  3154  4205  4206    1
  3155  4205  4207    1
  3156  4205  4208    1
  3157  4209  4210    1
  3158  4209  4211    1
  3159  4209  4212    1
  3160  4213  4214    1
  3161  4213  4215    1
  3162  4213  4216    1
  3163  4217  4218    1
  3164  4217  4219    1
  3165  4217  4220    1
  3166  4221  4222    1
  3167  4221  4223    1
  3168  4221  4224    1
  3169  4225  4226    1
  3170  4225  4227    1
  3171  4225  4228    1
  3172  4229  4230    1
  3173  4229  4231    1
  3174  4229  4232    1
  3175  4233  4234    1
  3176  4233  4235    1
  3177  4233  4236    1
  3178  4237  4238    1
  3179  4237  4239    1
  3180  4237  4240    1
  3181  4241  4242    1
  3182  4241  4243    1
  3183  4241  4244    1
  3184  4245  4246    1
  3185  4245  4247    1
  3186  4245  4248    1
  3187  4249  4250    1
  3188  4249  4251    1
  3189  4249  4252    1
  3190  4253  4254    1
  3191  4253  4255    1
  3192  4253  4256    1
  3193  4257  4258    1
  3194  4257  4259    1
  3195  4257  4260    1
  3196  4261  4262    1
  3197  4261  4263    1
  3198  4261  4264    1
  3199  4265  4266    1
  3200  4265  4267    1
  3201  4265  4268    1
  3202  4269  4270    1
  3203  4269  4271    1
  3204  4269  4272    1
  3205  4273  4274    1
  3206  4273  4275    1
  3207  4273  4276    1
  3208  4277  4278    1
  3209  4277  4279    1
  3210  4277  4280    1
  3211  4281  4282    1
  3212  4281  4283    1
  3213  4281  4284    1
  3214  4285  4286    1
  3215  4285  4287    1
  3216  4285  4288    1
  3217  4289  4290    1
  3218  4289  4291    1
  3219  4289  4292    1
  3220  4293  4294    1
  3221  4293  4295    1
  3222  4293  4296    1
  3223  4297  4298    1
  3224  4297  4299    1
  3225  4297  4300    1
  3226  4301  4302    1
  3227  4301  4303    1
  3228  4301  4304    1
  3229  4305  4306    1
  3230  4305  4307    1
  3231  4305  4308    1
  3232  4309  4310    1
  3233  4309  4311    1
  3234  4309  4312    1
  3235  4313  4314    1
  3236  4313  4315    1
  3237  4313  4316    1
  3238  4317  4318    1
  3239  4317  4319    1
  3240  4317  4320    1
  3241  4321  4322    1
  3242  4321  4323    1
  3243  4321  4324    1
  3244  4325  4326    1
  3245  4325  4327    1
  3246  4325  4328    1
  3247  4329  4330    1
  3248  4329  4331    1
  3249  4329  4332    1
  3250  4333  4334    1
  3251  4333  4335    1
  3252  4333  4336    1
  3253  4337  4338    1
  3254  4337  4339    1
  3255  4337  4340    1
  3256  4341  4342    1
  3257  4341  4343    1
  3258  4341  4344    1
  3259  4345  4346    1
  3260  4345  4347    1
  3261  4345  4348    1
  3262  4349  4350    1
  3263  4349  4351    1
  3264  4349  4352    1
  3265  4353  4354    1
  3266  4353  4355    1
  3267  4353  4356    1
  3268  4357  4358    1
  3269  4357  4359    1
  3270  4357  4360    1
  3271  4361  4362    1
  3272  4361  4363    1
  3273  4361  4364    1
  3274  4365  4366    1
  3275  4365  4367    1
  3276  4365  4368    1
  3277  4369  4370    1
  3278  4369  4371    1
  3279  4369  4372    1
  3280  4373  4374    1
  3281  4373  4375    1
  3282  4373  4376    1
  3283  4377  4378    1
  3284  4377  4379    1
  3285  4377  4380    1
  3286  4381  4382    1
  3287  4381  4383    1
  3288  4381  4384    1
  3289  4385  4386    1
  3290  4385  4387    1
  3291  4385  4388    1
  3292  4389  4390    1
  3293  4389  4391    1
  3294  4389  4392    1
  3295  4393  4394    1
  3296  4393  4395    1
  3297  4393  4396    1
  3298  4397  4398    1
  3299  4397  4399    1
  3300  4397  4400    1
  3301  4401  4402    1
  3302  4401  4403    1
  3303  4401  4404    1
  3304  4405  4406    1
  3305  4405  4407    1
  3306  4405  4408    1
  3307  4409  4410    1
  3308  4409  4411    1
  3309  4409  4412    1
  3310  4413  4414    1
  3311  4413  4415    1
  3312  4413  4416    1
  3313  4417  4418    1
  3314  4417  4419    1
  3315  4417  4420    1
  3316  4421  4422    1
  3317  4421  4423    1
  3318  4421  4424    1
  3319  4425  4426    1
  3320  4425  4427    1
  3321  4425  4428    1
  3322  4429  4430    1
  3323  4429  4431    1
  3324  4429  4432    1
  3325  4433  4434    1
  3326  4433  4435    1
  3327  4433  4436    1
  3328  4437  4438    1
  3329  4437  4439    1
  3330  4437  4440    1
  3331  4441  4442    1
  3332  4441  4443    1
  3333  4441  4444    1
  3334  4445  4446    1
  3335  4445  4447    1
  3336  4445  4448    1
  3337  4449  4450    1
  3338  4449  4451    1
  3339  4449  4452    1
  3340  4453  4454    1
  3341  4453  4455    1
  3342  4453  4456    1
  3343  4457  4458    1
  3344  4457  4459    1
  3345  4457  4460    1
  3346  4461  4462    1
  3347  4461  4463    1
  3348  4461  4464    1
  3349  4465  4466    1
  3350  4465  4467    1
  3351  4465  4468    1
  3352  4469  4470    1
  3353  4469  4471    1
  3354  4469  4472    1
  3355  4473  4474    1
  3356  4473  4475    1
  3357  4473  4476    1
  3358  4477  4478    1
  3359  4477  4479    1
  3360  4477  4480    1
  3361  4481  4482    1
  3362  4481  4483    1
  3363  4481  4484    1
  3364  4485  4486    1
  3365  4485  4487    1
  3366  4485  4488    1
  3367  4489  4490    1
  3368  4489  4491    1
  3369  4489  4492    1
  3370  4493  4494    1
  3371  4493  4495    1
  3372  4493  4496    1
  3373  4497  4498    1
  3374  4497  4499    1
  3375  4497  4500    1
  3376  4501  4502    1
  3377  4501  4503    1
  3378  4501  4504    1
  3379  4505  4506    1
  3380  4505  4507    1
  3381  4505  4508    1
  3382  4509  4510    1
  3383  4509  4511    1
  3384  4509  4512    1
  3385  4513  4514    1
  3386  4513  4515    1
  3387  4513  4516    1
  3388  4517  4518    1
  3389  4517  4519    1
  3390  4517  4520    1
  3391  4521  4522    1
  3392  4521  4523    1
  3393  4521  4524    1
  3394  4525  4526    1
  3395  4525  4527    1
  3396  4525  4528    1
  3397  4529  4530    1
  3398  4529  4531    1
  3399  4529  4532    1
  3400  4533  4534    1
  3401  4533  4535    1
  3402  4533  4536    1
  3403  4537  4538    1
  3404  4537  4539    1
  3405  4537  4540    1
  3406  4541  4542    1
  3407  4541  4543    1
  3408  4541  4544    1
  3409  4545  4546    1
  3410  4545  4547    1
  3411  4545  4548    1
  3412  4549  4550    1
  3413  4549  4551    1
  3414  4549  4552    1
  3415  4553  4554    1
  3416  4553  4555    1
  3417  4553  4556    1
  3418  4557  4558    1
  3419  4557  4559    1
  3420  4557  4560    1
  3421  4561  4562    1
  3422  4561  4563    1
  3423  4561  4564    1
  3424  4565  4566    1
  3425  4565  4567    1
  3426  4565  4568    1
  3427  4569  4570    1
  3428  4569  4571    1
  3429  4569  4572    1
  3430  4573  4574    1
  3431  4573  4575    1
  3432  4573  4576    1
  3433  4577  4578    1
  3434  4577  4579    1
  3435  4577  4580    1
  3436  4581  4582    1
  3437  4581  4583    1
  3438  4581  4584    1
  3439  4585  4586    1
  3440  4585  4587    1
  3441  4585  4588    1
  3442  4589  4590    1
  3443  4589  4591    1
  3444  4589  4592    1
  3445  4593  4594    1
  3446  4593  4595    1
  3447  4593  4596    1
  3448  4597  4598    1
  3449  4597  4599    1
  3450  4597  4600    1
  3451  4601  4602    1
  3452  4601  4603    1
  3453  4601  4604    1
  3454  4605  4606    1
  3455  4605  4607    1
  3456  4605  4608    1
  3457  4609  4610    1
  3458  4609  4611    1
  3459  4609  4612    1
  3460  4613  4614    1
  3461  4613  4615    1
  3462  4613  4616    1
  3463  4617  4618    1
  3464  4617  4619    1
  3465  4617  4620    1
  3466  4621  4622    1
  3467  4621  4623    1
  3468  4621  4624    1
  3469  4625  4626    1
  3470  4625  4627    1
  3471  4625  4628    1
  3472  4629  4630    1
  3473  4629  4631    1
  3474  4629  4632    1
  3475  4633  4634    1
  3476  4633  4635    1
  3477  4633  4636    1
  3478  4637  4638    1
  3479  4637  4639    1
  3480  4637  4640    1
  3481  4641  4642    1
  3482  4641  4643    1
  3483  4641  4644    1
  3484  4645  4646    1
  3485  4645  4647    1
  3486  4645  4648    1
  3487  4649  4650    1
  3488  4649  4651    1
  3489  4649  4652    1
  3490  4653  4654    1
  3491  4653  4655    1
  3492  4653  4656    1
  3493  4657  4658    1
  3494  4657  4659    1
  3495  4657  4660    1
  3496  4661  4662    1
  3497  4661  4663    1
  3498  4661  4664    1
  3499  4665  4666    1
  3500  4665  4667    1
  3501  4665  4668    1
  3502  4669  4670    1
  3503  4669  4671    1
  3504  4669  4672    1
  3505  4673  4674    1
  3506  4673  4675    1
  3507  4673  4676    1
  3508  4677  4678    1
  3509  4677  4679    1
  3510  4677  4680    1
  3511  4681  4682    1
  3512  4681  4683    1
  3513  4681  4684    1
  3514  4685  4686    1
  3515  4685  4687    1
  3516  4685  4688    1
  3517  4689  4690    1
  3518  4689  4691    1
  3519  4689  4692    1
  3520  4693  4694    1
  3521  4693  4695    1
  3522  4693  4696    1
  3523  4697  4698    1
  3524  4697  4699    1
  3525  4697  4700    1
  3526  4701  4702    1
  3527  4701  4703    1
  3528  4701  4704    1
  3529  4705  4706    1
  3530  4705  4707    1
  3531  4705  4708    1
  3532  4709  4710    1
  3533  4709  4711    1
  3534  4709  4712    1
  3535  4713  4714    1
  3536  4713  4715    1
  3537  4713  4716    1
  3538  4717  4718    1
  3539  4717  4719    1
  3540  4717  4720    1
  3541  4721  4722    1
  3542  4721  4723    1
  3543  4721  4724    1
  3544  4725  4726    1
  3545  4725  4727    1
  3546  4725  4728    1
  3547  4729  4730    1
  3548  4729  4731    1
  3549  4729  4732    1
  3550  4733  4734    1
  3551  4733  4735    1
  3552  4733  4736    1
  3553  4737  4738    1
  3554  4737  4739    1
  3555  4737  4740    1
  3556  4741  4742    1
  3557  4741  4743    1
  3558  4741  4744    1
  3559  4745  4746    1
  3560  4745  4747    1
  3561  4745  4748    1
  3562  4749  4750    1
  3563  4749  4751    1
  3564  4749  4752    1
  3565  4753  4754    1
  3566  4753  4755    1
  3567  4753  4756    1
  3568  4757  4758    1
  3569  4757  4759    1
  3570  4757  4760    1
  3571  4761  4762    1
  3572  4761  4763    1
  3573  4761  4764    1
  3574  4765  4766    1
  3575  4765  4767    1
  3576  4765  4768    1
  3577  4769  4770    1
  3578  4769  4771    1
  3579  4769  4772    1
  3580  4773  4774    1
  3581  4773  4775    1
  3582  4773  4776    1
  3583  4777  4778    1
  3584  4777  4779    1
  3585  4777  4780    1
  3586  4781  4782    1
  3587  4781  4783    1
  3588  4781  4784    1
  3589  4785  4786    1
  3590  4785  4787    1
  3591  4785  4788    1
  3592  4789  4790    1
  3593  4789  4791    1
  3594  4789  4792    1
  3595  4793  4794    1
  3596  4793  4795    1
  3597  4793  4796    1
  3598  4797  4798    1
  3599  4797  4799    1
  3600  4797  4800    1
  3601  4801  4802    1
  3602  4801  4803    1
  3603  4801  4804    1
  3604  4805  4806    1
  3605  4805  4807    1
  3606  4805  4808    1
  3607  4809  4810    1
  3608  4809  4811    1
  3609  4809  4812    1
  3610  4813  4814    1
  3611  4813  4815    1
  3612  4813  4816    1
  3613  4817  4818    1
  3614  4817  4819    1
  3615  4817  4820    1
  3616  4821  4822    1
  3617  4821  4823    1
  3618  4821  4824    1
  3619  4825  4826    1
  3620  4825  4827    1
  3621  4825  4828    1
  3622  4829  4830    1
  3623  4829  4831    1
  3624  4829  4832    1
  3625  4833  4834    1
  3626  4833  4835    1
  3627  4833  4836    1
  3628  4837  4838    1
  3629  4837  4839    1
  3630  4837  4840    1
  3631  4841  4842    1
  3632  4841  4843    1
  3633  4841  4844    1
  3634  4845  4846    1
  3635  4845  4847    1
  3636  4845  4848    1
  3637  4849  4850    1
  3638  4849  4851    1
  3639  4849  4852    1
  3640  4853  4854    1
  3641  4853  4855    1
  3642  4853  4856    1
  3643  4857  4858    1
  3644  4857  4859    1
  3645  4857  4860    1
  3646  4861  4862    1
  3647  4861  4863    1
  3648  4861  4864    1
  3649  4865  4866    1
  3650  4865  4867    1
  3651  4865  4868    1
  3652  4869  4870    1
  3653  4869  4871    1
  3654  4869  4872    1
  3655  4873  4874    1
  3656  4873  4875    1
  3657  4873  4876    1
  3658  4877  4878    1
  3659  4877  4879    1
  3660  4877  4880    1
  3661  4881  4882    1
  3662  4881  4883    1
  3663  4881  4884    1
  3664  4885  4886    1
  3665  4885  4887    1
  3666  4885  4888    1
  3667  4889  4890    1
  3668  4889  4891    1
  3669  4889  4892    1
  3670  4893  4894    1
  3671  4893  4895    1
  3672  4893  4896    1
  3673  4897  4898    1
  3674  4897  4899    1
  3675  4897  4900    1
  3676  4901  4902    1
  3677  4901  4903    1
  3678  4901  4904    1
  3679  4905  4906    1
  3680  4905  4907    1
  3681  4905  4908    1
  3682  4909  4910    1
  3683  4909  4911    1
  3684  4909  4912    1
  3685  4913  4914    1
  3686  4913  4915    1
  3687  4913  4916    1
  3688  4917  4918    1
  3689  4917  4919    1
  3690  4917  4920    1
  3691  4921  4922    1
  3692  4921  4923    1
  3693  4921  4924    1
  3694  4925  4926    1
  3695  4925  4927    1
  3696  4925  4928    1
  3697  4929  4930    1
  3698  4929  4931    1
  3699  4929  4932    1
  3700  4933  4934    1
  3701  4933  4935    1
  3702  4933  4936    1
  3703  4937  4938    1
  3704  4937  4939    1
  3705  4937  4940    1
  3706  4941  4942    1
  3707  4941  4943    1
  3708  4941  4944    1
  3709  4945  4946    1
  3710  4945  4947    1
  3711  4945  4948    1
  3712  4949  4950    1
  3713  4949  4951    1
  3714  4949  4952    1
  3715  4953  4954    1
  3716  4953  4955    1
  3717  4953  4956    1
  3718  4957  4958    1
  3719  4957  4959    1
  3720  4957  4960    1
  3721  4961  4962    1
  3722  4961  4963    1
  3723  4961  4964    1
  3724  4965  4966    1
  3725  4965  4967    1
  3726  4965  4968    1
  3727  4969  4970    1
  3728  4969  4971    1
  3729  4969  4972    1
  3730  4973  4974    1
  3731  4973  4975    1
  3732  4973  4976    1
  3733  4977  4978    1
  3734  4977  4979    1
  3735  4977  4980    1
  3736  4981  4982    1
  3737  4981  4983    1
  3738  4981  4984    1
  3739  4985  4986    1
  3740  4985  4987    1
  3741  4985  4988    1
  3742  4989  4990    1
  3743  4989  4991    1
  3744  4989  4992    1
  3745  4993  4994    1
  3746  4993  4995    1
  3747  4993  4996    1
  3748  4997  4998    1
  3749  4997  4999    1
  3750  4997  5000    1
  3751  5001  5002    1
  3752  5001  5003    1
  3753  5001  5004    1
  3754  5005  5006    1
  3755  5005  5007    1
  3756  5005  5008    1
  3757  5009  5010    1
  3758  5009  5011    1
  3759  5009  5012    1
  3760  5013  5014    1
  3761  5013  5015    1
  3762  5013  5016    1
  3763  5017  5018    1
  3764  5017  5019    1
  3765  5017  5020    1
  3766  5021  5022    1
  3767  5021  5023    1
  3768  5021  5024    1
  3769  5025  5026    1
  3770  5025  5027    1
  3771  5025  5028    1
  3772  5029  5030    1
  3773  5029  5031    1
  3774  5029  5032    1
  3775  5033  5034    1
  3776  5033  5035    1
  3777  5033  5036    1
  3778  5037  5038    1
  3779  5037  5039    1
  3780  5037  5040    1
  3781  5041  5042    1
  3782  5041  5043    1
  3783  5041  5044    1
  3784  5045  5046    1
  3785  5045  5047    1
  3786  5045  5048    1
  3787  5049  5050    1
  3788  5049  5051    1
  3789  5049  5052    1
  3790  5053  5054    1
  3791  5053  5055    1
  3792  5053  5056    1
  3793  5057  5058    1
  3794  5057  5059    1
  3795  5057  5060    1
  3796  5061  5062    1
  3797  5061  5063    1
  3798  5061  5064    1
  3799  5065  5066    1
  3800  5065  5067    1
  3801  5065  5068    1
  3802  5069  5070    1
  3803  5069  5071    1
  3804  5069  5072    1
  3805  5073  5074    1
  3806  5073  5075    1
  3807  5073  5076    1
  3808  5077  5078    1
  3809  5077  5079    1
  3810  5077  5080    1
  3811  5081  5082    1
  3812  5081  5083    1
  3813  5081  5084    1
  3814  5085  5086    1
  3815  5085  5087    1
  3816  5085  5088    1
  3817  5089  5090    1
  3818  5089  5091    1
  3819  5089  5092    1
  3820  5093  5094    1
  3821  5093  5095    1
  3822  5093  5096    1
  3823  5097  5098    1
  3824  5097  5099    1
  3825  5097  5100    1
  3826  5101  5102    1
  3827  5101  5103    1
  3828  5101  5104    1
  3829  5105  5106    1
  3830  5105  5107    1
  3831  5105  5108    1
  3832  5109  5110    1
  3833  5109  5111    1
  3834  5109  5112    1
  3835  5113  5114    1
  3836  5113  5115    1
  3837  5113  5116    1
  3838  5117  5118    1
  3839  5117  5119    1
  3840  5117  5120    1
  3841  5121  5122    1
  3842  5121  5123    1
  3843  5121  5124    1
  3844  5125  5126    1
  3845  5125  5127    1
  3846  5125  5128    1
  3847  5129  5130    1
  3848  5129  5131    1
  3849  5129  5132    1
  3850  5133  5134    1
  3851  5133  5135    1
  3852  5133  5136    1
  3853  5137  5138    1
  3854  5137  5139    1
  3855  5137  5140    1
  3856  5141  5142    1
  3857  5141  5143    1
  3858  5141  5144    1
  3859  5145  5146    1
  3860  5145  5147    1
  3861  5145  5148    1
  3862  5149  5150    1
  3863  5149  5151    1
  3864  5149  5152    1
  3865  5153  5154    1
  3866  5153  5155    1
  3867  5153  5156    1
  3868  5157  5158    1
  3869  5157  5159    1
  3870  5157  5160    1
  3871  5161  5162    1
  3872  5161  5163    1
  3873  5161  5164    1
  3874  5165  5166    1
  3875  5165  5167    1
  3876  5165  5168    1
  3877  5169  5170    1
  3878  5169  5171    1
  3879  5169  5172    1
  3880  5173  5174    1
  3881  5173  5175    1
  3882  5173  5176    1
  3883  5177  5178    1
  3884  5177  5179    1
  3885  5177  5180    1
  3886  5181  5182    1
  3887  5181  5183    1
  3888  5181  5184    1
  3889  5185  5186    1
  3890  5185  5187    1
  3891  5185  5188    1
  3892  5189  5190    1
  3893  5189  5191    1
  3894  5189  5192    1
  3895  5193  5194    1
  3896  5193  5195    1
  3897  5193  5196    1
  3898  5197  5198    1
  3899  5197  5199    1
  3900  5197  5200    1
  3901  5201  5202    1
  3902  5201  5203    1
  3903  5201  5204    1
  3904  5205  5206    1
  3905  5205  5207    1
  3906  5205  5208    1
  3907  5209  5210    1
  3908  5209  5211    1
  3909  5209  5212    1
  3910  5213  5214    1
  3911  5213  5215    1
  3912  5213  5216    1
  3913  5217  5218    1
  3914  5217  5219    1
  3915  5217  5220    1
  3916  5221  5222    1
  3917  5221  5223    1
  3918  5221  5224    1
  3919  5225  5226    1
  3920  5225  5227    1
  3921  5225  5228    1
  3922  5229  5230    1
  3923  5229  5231    1
  3924  5229  5232    1
  3925  5233  5234    1
  3926  5233  5235    1
  3927  5233  5236    1
  3928  5237  5238    1
  3929  5237  5239    1
  3930  5237  5240    1
  3931  5241  5242    1
  3932  5241  5243    1
  3933  5241  5244    1
  3934  5245  5246    1
  3935  5245  5247    1
  3936  5245  5248    1
  3937  5249  5250    1
  3938  5249  5251    1
  3939  5249  5252    1
  3940  5253  5254    1
  3941  5253  5255    1
  3942  5253  5256    1
  3943  5257  5258    1
  3944  5257  5259    1
  3945  5257  5260    1
  3946  5261  5262    1
  3947  5261  5263    1
  3948  5261  5264    1
  3949  5265  5266    1
  3950  5265  5267    1
  3951  5265  5268    1
  3952  5269  5270    1
  3953  5269  5271    1
  3954  5269  5272    1
  3955  5273  5274    1
  3956  5273  5275    1
  3957  5273  5276    1
  3958  5277  5278    1
  3959  5277  5279    1
  3960  5277  5280    1
  3961  5281  5282    1
  3962  5281  5283    1
  3963  5281  5284    1
  3964  5285  5286    1
  3965  5285  5287    1
  3966  5285  5288    1
  3967  5289  5290    1
  3968  5289  5291    1
  3969  5289  5292    1
  3970  5293  5294    1
  3971  5293  5295    1
  3972  5293  5296    1
  3973  5297  5298    1
  3974  5297  5299    1
  3975  5297  5300    1
  3976  5301  5302    1
  3977  5301  5303    1
  3978  5301  5304    1
  3979  5305  5306    1
  3980  5305  5307    1
  3981  5305  5308    1
  3982  5309  5310    1
  3983  5309  5311    1
  3984  5309  5312    1
  3985  5313  5314    1
  3986  5313  5315    1
  3987  5313  5316    1
  3988  5317  5318    1
  3989  5317  5319    1
  3990  5317  5320    1
  3991  5321  5322    1
  3992  5321  5323    1
  3993  5321  5324    1
  3994  5325  5326    1
  3995  5325  5327    1
  3996  5325  5328    1
  3997  5329  5330    1
  3998  5329  5331    1
  3999  5329  5332    1
  4000  5333  5334    1
  4001  5333  5335    1
  4002  5333  5336    1
  4003  5337  5338    1
  4004  5337  5339    1
  4005  5337  5340    1
  4006  5341  5342    1
  4007  5341  5343    1
  4008  5341  5344    1
  4009  5345  5346    1
  4010  5345  5347    1
  4011  5345  5348    1
  4012  5349  5350    1
  4013  5349  5351    1
  4014  5349  5352    1
  4015  5353  5354    1
  4016  5353  5355    1
  4017  5353  5356    1
  4018  5357  5358    1
  4019  5357  5359    1
  4020  5357  5360    1
  4021  5361  5362    1
  4022  5361  5363    1
  4023  5361  5364    1
  4024  5365  5366    1
  4025  5365  5367    1
  4026  5365  5368    1
  4027  5369  5370    1
  4028  5369  5371    1
  4029  5369  5372    1
  4030  5373  5374    1
  4031  5373  5375    1
  4032  5373  5376    1
  4033  5377  5378    1
  4034  5377  5379    1
  4035  5377  5380    1
  4036  5381  5382    1
  4037  5381  5383    1
  4038  5381  5384    1
  4039  5385  5386    1
  4040  5385  5387    1
  4041  5385  5388    1
  4042  5389  5390    1
  4043  5389  5391    1
  4044  5389  5392    1
  4045  5393  5394    1
  4046  5393  5395    1
  4047  5393  5396    1
  4048  5397  5398    1
  4049  5397  5399    1
  4050  5397  5400    1
  4051  5401  5402    1
  4052  5401  5403    1
  4053  5401  5404    1
  4054  5405  5406    1
  4055  5405  5407    1
  4056  5405  5408    1
  4057  5409  5410    1
  4058  5409  5411    1
  4059  5409  5412    1
  4060  5413  5414    1
  4061  5413  5415    1
  4062  5413  5416    1
  4063  5417  5418    1
  4064  5417  5419    1
  4065  5417  5420    1
  4066  5421  5422    1
  4067  5421  5423    1
  4068  5421  5424    1
  4069  5425  5426    1
  4070  5425  5427    1
  4071  5425  5428    1
  4072  5429  5430    1
  4073  5429  5431    1
  4074  5429  5432    1
  4075  5433  5434    1
  4076  5433  5435    1
  4077  5433  5436    1
  4078  5437  5438    1
  4079  5437  5439    1
  4080  5437  5440    1
  4081  5441  5442    1
  4082  5441  5443    1
  4083  5441  5444    1
  4084  5445  5446    1
  4085  5445  5447    1
  4086  5445  5448    1
  4087  5449  5450    1
  4088  5449  5451    1
  4089  5449  5452    1
  4090  5453  5454    1
  4091  5453  5455    1
  4092  5453  5456    1
  4093  5457  5458    1
  4094  5457  5459    1
  4095  5457  5460    1
  4096  5461  5462    1
  4097  5461  5463    1
  4098  5461  5464    1
  4099  5465  5466    1
  4100  5465  5467    1
  4101  5465  5468    1
  4102  5469  5470    1
  4103  5469  5471    1
  4104  5469  5472    1
  4105  5473  5474    1
  4106  5473  5475    1
  4107  5473  5476    1
  4108  5477  5478    1
  4109  5477  5479    1
  4110  5477  5480    1
  4111  5481  5482    1
  4112  5481  5483    1
  4113  5481  5484    1
  4114  5485  5486    1
  4115  5485  5487    1
  4116  5485  5488    1
  4117  5489  5490    1
  4118  5489  5491    1
  4119  5489  5492    1
  4120  5493  5494    1
  4121  5493  5495    1
  4122  5493  5496    1
  4123  5497  5498    1
  4124  5497  5499    1
  4125  5497  5500    1
  4126  5501  5502    1
  4127  5501  5503    1
  4128  5501  5504    1
  4129  5505  5506    1
  4130  5505  5507    1
  4131  5505  5508    1
  4132  5509  5510    1
  4133  5509  5511    1
  4134  5509  5512    1
  4135  5513  5514    1
  4136  5513  5515    1
  4137  5513  5516    1
  4138  5517  5518    1
  4139  5517  5519    1
  4140  5517  5520    1
  4141  5521  5522    1
  4142  5521  5523    1
  4143  5521  5524    1
  4144  5525  5526    1
  4145  5525  5527    1
  4146  5525  5528    1
  4147  5529  5530    1
  4148  5529  5531    1
  4149  5529  5532    1
  4150  5533  5534    1
  4151  5533  5535    1
  4152  5533  5536    1
  4153  5537  5538    1
  4154  5537  5539    1
  4155  5537  5540    1
  4156  5541  5542    1
  4157  5541  5543    1
  4158  5541  5544    1
  4159  5545  5546    1
  4160  5545  5547    1
  4161  5545  5548    1
  4162  5549  5550    1
  4163  5549  5551    1
  4164  5549  5552    1
  4165  5553  5554    1
  4166  5553  5555    1
  4167  5553  5556    1
  4168  5557  5558    1
  4169  5557  5559    1
  4170  5557  5560    1
  4171  5561  5562    1
  4172  5561  5563    1
  4173  5561  5564    1
  4174  5565  5566    1
  4175  5565  5567    1
  4176  5565  5568    1
  4177  5569  5570    1
  4178  5569  5571    1
  4179  5569  5572    1
  4180  5573  5574    1
  4181  5573  5575    1
  4182  5573  5576    1
  4183  5577  5578    1
  4184  5577  5579    1
  4185  5577  5580    1
  4186  5581  5582    1
  4187  5581  5583    1
  4188  5581  5584    1
  4189  5585  5586    1
  4190  5585  5587    1
  4191  5585  5588    1
  4192  5589  5590    1
  4193  5589  5591    1
  4194  5589  5592    1
  4195  5593  5594    1
  4196  5593  5595    1
  4197  5593  5596    1
  4198  5597  5598    1
  4199  5597  5599    1
  4200  5597  5600    1
  4201  5601  5602    1
  4202  5601  5603    1
  4203  5601  5604    1
  4204  5605  5606    1
  4205  5605  5607    1
  4206  5605  5608    1
  4207  5609  5610    1
  4208  5609  5611    1
  4209  5609  5612    1
  4210  5613  5614    1
  4211  5613  5615    1
  4212  5613  5616    1
  4213  5617  5618    1
  4214  5617  5619    1
  4215  5617  5620    1
  4216  5621  5622    1
  4217  5621  5623    1
  4218  5621  5624    1
  4219  5625  5626    1
  4220  5625  5627    1
  4221  5625  5628    1
  4222  5629  5630    1
  4223  5629  5631    1
  4224  5629  5632    1
  4225  5633  5634    1
  4226  5633  5635    1
  4227  5633  5636    1
  4228  5637  5638    1
  4229  5637  5639    1
  4230  5637  5640    1
  4231  5641  5642    1
  4232  5641  5643    1
  4233  5641  5644    1
  4234  5645  5646    1
  4235  5645  5647    1
  4236  5645  5648    1
  4237  5649  5650    1
  4238  5649  5651    1
  4239  5649  5652    1
  4240  5653  5654    1
  4241  5653  5655    1
  4242  5653  5656    1
  4243  5657  5658    1
  4244  5657  5659    1
  4245  5657  5660    1
  4246  5661  5662    1
  4247  5661  5663    1
  4248  5661  5664    1
  4249  5665  5666    1
  4250  5665  5667    1
  4251  5665  5668    1
  4252  5669  5670    1
  4253  5669  5671    1
  4254  5669  5672    1
  4255  5673  5674    1
  4256  5673  5675    1
  4257  5673  5676    1
  4258  5677  5678    1
  4259  5677  5679    1
  4260  5677  5680    1
  4261  5681  5682    1
  4262  5681  5683    1
  4263  5681  5684    1
  4264  5685  5686    1
  4265  5685  5687    1
  4266  5685  5688    1
  4267  5689  5690    1
  4268  5689  5691    1
  4269  5689  5692    1
  4270  5693  5694    1
  4271  5693  5695    1
  4272  5693  5696    1
  4273  5697  5698    1
  4274  5697  5699    1
  4275  5697  5700    1
  4276  5701  5702    1
  4277  5701  5703    1
  4278  5701  5704    1
  4279  5705  5706    1
  4280  5705  5707    1
  4281  5705  5708    1
  4282  5709  5710    1
  4283  5709  5711    1
  4284  5709  5712    1
  4285  5713  5714    1
  4286  5713  5715    1
  4287  5713  5716    1
  4288  5717  5718    1
  4289  5717  5719    1
  4290  5717  5720    1
  4291  5721  5722    1
  4292  5721  5723    1
  4293  5721  5724    1
  4294  5725  5726    1
  4295  5725  5727    1
  4296  5725  5728    1
  4297  5729  5730    1
  4298  5729  5731    1
  4299  5729  5732    1
  4300  5733  5734    1
  4301  5733  5735    1
  4302  5733  5736    1
  4303  5737  5738    1
  4304  5737  5739    1
  4305  5737  5740    1
  4306  5741  5742    1
  4307  5741  5743    1
  4308  5741  5744    1
  4309  5745  5746    1
  4310  5745  5747    1
  4311  5745  5748    1
  4312  5749  5750    1
  4313  5749  5751    1
  4314  5749  5752    1
  4315  5753  5754    1
  4316  5753  5755    1
  4317  5753  5756    1
  4318  5757  5758    1
  4319  5757  5759    1
  4320  5757  5760    1
  4321  5761  5762    1
  4322  5761  5763    1
  4323  5761  5764    1
  4324  5765  5766    1
  4325  5765  5767    1
  4326  5765  5768    1
  4327  5769  5770    1
  4328  5769  5771    1
  4329  5769  5772    1
  4330  5773  5774    1
  4331  5773  5775    1
  4332  5773  5776    1
  4333  5777  5778    1
  4334  5777  5779    1
  4335  5777  5780    1
  4336  5781  5782    1
  4337  5781  5783    1
  4338  5781  5784    1
  4339  5785  5786    1
  4340  5785  5787    1
  4341  5785  5788    1
  4342  5789  5790    1
  4343  5789  5791    1
  4344  5789  5792    1
  4345  5793  5794    1
  4346  5793  5795    1
  4347  5793  5796    1
  4348  5797  5798    1
  4349  5797  5799    1
  4350  5797  5800    1
  4351  5801  5802    1
  4352  5801  5803    1
  4353  5801  5804    1
  4354  5805  5806    1
  4355  5805  5807    1
  4356  5805  5808    1
  4357  5809  5810    1
  4358  5809  5811    1
  4359  5809  5812    1
  4360  5813  5814    1
  4361  5813  5815    1
  4362  5813  5816    1
  4363  5817  5818    1
  4364  5817  5819    1
  4365  5817  5820    1
  4366  5821  5822    1
  4367  5821  5823    1
  4368  5821  5824    1
  4369  5825  5826    1
  4370  5825  5827    1
  4371  5825  5828    1
  4372  5829  5830    1
  4373  5829  5831    1
  4374  5829  5832    1
  4375  5833  5834    1
  4376  5833  5835    1
  4377  5833  5836    1
  4378  5837  5838    1
  4379  5837  5839    1
  4380  5837  5840    1
  4381  5841  5842    1
  4382  5841  5843    1
  4383  5841  5844    1
  4384  5845  5846    1
  4385  5845  5847    1
  4386  5845  5848    1
  4387  5849  5850    1
  4388  5849  5851    1
  4389  5849  5852    1
  4390  5853  5854    1
  4391  5853  5855    1
  4392  5853  5856    1
  4393  5857  5858    1
  4394  5857  5859    1
  4395  5857  5860    1
  4396  5861  5862    1
  4397  5861  5863    1
  4398  5861  5864    1
  4399  5865  5866    1
  4400  5865  5867    1
  4401  5865  5868    1
  4402  5869  5870    1
  4403  5869  5871    1
  4404  5869  5872    1
  4405  5873  5874    1
  4406  5873  5875    1
  4407  5873  5876    1
  4408  5877  5878    1
  4409  5877  5879    1
  4410  5877  5880    1
  4411  5881  5882    1
  4412  5881  5883    1
  4413  5881  5884    1
  4414  5885  5886    1
  4415  5885  5887    1
  4416  5885  5888    1
  4417  5889  5890    1
  4418  5889  5891    1
  4419  5889  5892    1
  4420  5893  5894    1
  4421  5893  5895    1
  4422  5893  5896    1
  4423  5897  5898    1
  4424  5897  5899    1
  4425  5897  5900    1
  4426  5901  5902    1
  4427  5901  5903    1
  4428  5901  5904    1
  4429  5905  5906    1
  4430  5905  5907    1
  4431  5905  5908    1
  4432  5909  5910    1
  4433  5909  5911    1
  4434  5909  5912    1
  4435  5913  5914    1
  4436  5913  5915    1
  4437  5913  5916    1
  4438  5917  5918    1
  4439  5917  5919    1
  4440  5917  5920    1
  4441  5921  5922    1
  4442  5921  5923    1
  4443  5921  5924    1
  4444  5925  5926    1
  4445  5925  5927    1
  4446  5925  5928    1
  4447  5929  5930    1
  4448  5929  5931    1
  4449  5929  5932    1
  4450  5933  5934    1
  4451  5933  5935    1
  4452  5933  5936    1
  4453  5937  5938    1
  4454  5937  5939    1
  4455  5937  5940    1
  4456  5941  5942    1
  4457  5941  5943    1
  4458  5941  5944    1
  4459  5945  5946    1
  4460  5945  5947    1
  4461  5945  5948    1
  4462  5949  5950    1
  4463  5949  5951    1
  4464  5949  5952    1
  4465  5953  5954    1
  4466  5953  5955    1
  4467  5953  5956    1
  4468  5957  5958    1
  4469  5957  5959    1
  4470  5957  5960    1
  4471  5961  5962    1
  4472  5961  5963    1
  4473  5961  5964    1
  4474  5965  5966    1
  4475  5965  5967    1
  4476  5965  5968    1
  4477  5969  5970    1
  4478  5969  5971    1
  4479  5969  5972    1
  4480  5973  5974    1
  4481  5973  5975    1
  4482  5973  5976    1
  4483  5977  5978    1
  4484  5977  5979    1
  4485  5977  5980    1
  4486  5981  5982    1
  4487  5981  5983    1
  4488  5981  5984    1
  4489  5985  5986    1
  4490  5985  5987    1
  4491  5985  5988    1
  4492  5989  5990    1
  4493  5989  5991    1
  4494  5989  5992    1
  4495  5993  5994    1
  4496  5993  5995    1
  4497  5993  5996    1
  4498  5997  5998    1
  4499  5997  5999    1
  4500  5997  6000    1
  4501  6001  6002    1
  4502  6001  6003    1
  4503  6001  6004    1
  4504  6005  6006    1
  4505  6005  6007    1
  4506  6005  6008    1
  4507  6009  6010    1
  4508  6009  6011    1
  4509  6009  6012    1
  4510  6013  6014    1
  4511  6013  6015    1
  4512  6013  6016    1
  4513  6017  6018    1
  4514  6017  6019    1
  4515  6017  6020    1
  4516  6021  6022    1
  4517  6021  6023    1
  4518  6021  6024    1
  4519  6025  6026    1
  4520  6025  6027    1
  4521  6025  6028    1
  4522  6029  6030    1
  4523  6029  6031    1
  4524  6029  6032    1
  4525  6033  6034    1
  4526  6033  6035    1
  4527  6033  6036    1
  4528  6037  6038    1
  4529  6037  6039    1
  4530  6037  6040    1
  4531  6041  6042    1
  4532  6041  6043    1
  4533  6041  6044    1
  4534  6045  6046    1
  4535  6045  6047    1
  4536  6045  6048    1
  4537  6049  6050    1
  4538  6049  6051    1
  4539  6049  6052    1
  4540  6053  6054    1
  4541  6053  6055    1
  4542  6053  6056    1
  4543  6057  6058    1
  4544  6057  6059    1
  4545  6057  6060    1
  4546  6061  6062    1
  4547  6061  6063    1
  4548  6061  6064    1
  4549  6065  6066    1
  4550  6065  6067    1
  4551  6065  6068    1
  4552  6069  6070    1
  4553  6069  6071    1
  4554  6069  6072    1
  4555  6073  6074    1
  4556  6073  6075    1
  4557  6073  6076    1
  4558  6077  6078    1
  4559  6077  6079    1
  4560  6077  6080    1
  4561  6081  6082    1
  4562  6081  6083    1
  4563  6081  6084    1
  4564  6085  6086    1
  4565  6085  6087    1
  4566  6085  6088    1
  4567  6089  6090    1
  4568  6089  6091    1
  4569  6089  6092    1
  4570  6093  6094    1
  4571  6093  6095    1
  4572  6093  6096    1
  4573  6097  6098    1
  4574  6097  6099    1
  4575  6097  6100    1
  4576  6101  6102    1
  4577  6101  6103    1
  4578  6101  6104    1
  4579  6105  6106    1
  4580  6105  6107    1
  4581  6105  6108    1
  4582  6109  6110    1
  4583  6109  6111    1
  4584  6109  6112    1
  4585  6113  6114    1
  4586  6113  6115    1
  4587  6113  6116    1
  4588  6117  6118    1
  4589  6117  6119    1
  4590  6117  6120    1
  4591  6121  6122    1
  4592  6121  6123    1
  4593  6121  6124    1
  4594  6125  6126    1
  4595  6125  6127    1
  4596  6125  6128    1
  4597  6129  6130    1
  4598  6129  6131    1
  4599  6129  6132    1
  4600  6133  6134    1
  4601  6133  6135    1
  4602  6133  6136    1
  4603  6137  6138    1
  4604  6137  6139    1
  4605  6137  6140    1
  4606  6141  6142    1
  4607  6141  6143    1
  4608  6141  6144    1
  4609  6145  6146    1
  4610  6145  6147    1
  4611  6145  6148    1
  4612  6149  6150    1
  4613  6149  6151    1
  4614  6149  6152    1
  4615  6153  6154    1
  4616  6153  6155    1
  4617  6153  6156    1
  4618  6157  6158    1
  4619  6157  6159    1
  4620  6157  6160    1
  4621  6161  6162    1
  4622  6161  6163    1
  4623  6161  6164    1
  4624  6165  6166    1
  4625  6165  6167    1
  4626  6165  6168    1
  4627  6169  6170    1
  4628  6169  6171    1
  4629  6169  6172    1
  4630  6173  6174    1
  4631  6173  6175    1
  4632  6173  6176    1
  4633  6177  6178    1
  4634  6177  6179    1
  4635  6177  6180    1
  4636  6181  6182    1
  4637  6181  6183    1
  4638  6181  6184    1
  4639  6185  6186    1
  4640  6185  6187    1
  4641  6185  6188    1
  4642  6189  6190    1
  4643  6189  6191    1
  4644  6189  6192    1
  4645  6193  6194    1
  4646  6193  6195    1
  4647  6193  6196    1
  4648  6197  6198    1
  4649  6197  6199    1
  4650  6197  6200    1
  4651  6201  6202    1
  4652  6201  6203    1
  4653  6201  6204    1
  4654  6205  6206    1
  4655  6205  6207    1
  4656  6205  6208    1
  4657  6209  6210    1
  4658  6209  6211    1
  4659  6209  6212    1
  4660  6213  6214    1
  4661  6213  6215    1
  4662  6213  6216    1
  4663  6217  6218    1
  4664  6217  6219    1
  4665  6217  6220    1
  4666  6221  6222    1
  4667  6221  6223    1
  4668  6221  6224    1
  4669  6225  6226    1
  4670  6225  6227    1
  4671  6225  6228    1
  4672  6229  6230    1
  4673  6229  6231    1
  4674  6229  6232    1
  4675  6233  6234    1
  4676  6233  6235    1
  4677  6233  6236    1
  4678  6237  6238    1
  4679  6237  6239    1
  4680  6237  6240    1
  4681  6241  6242    1
  4682  6241  6243    1
  4683  6241  6244    1
  4684  6245  6246    1
  4685  6245  6247    1
  4686  6245  6248    1
  4687  6249  6250    1
  4688  6249  6251    1
  4689  6249  6252    1
  4690  6253  6254    1
  4691  6253  6255    1
  4692  6253  6256    1
  4693  6257  6258    1
  4694  6257  6259    1
  4695  6257  6260    1
  4696  6261  6262    1
  4697  6261  6263    1
  4698  6261  6264    1
  4699  6265  6266    1
  4700  6265  6267    1
  4701  6265  6268    1
  4702  6269  6270    1
  4703  6269  6271    1
  4704  6269  6272    1
  4705  6273  6274    1
  4706  6273  6275    1
  4707  6273  6276    1
  4708  6277  6278    1
  4709  6277  6279    1
  4710  6277  6280    1
  4711  6281  6282    1
  4712  6281  6283    1
  4713  6281  6284    1
  4714  6285  6286    1
  4715  6285  6287    1
  4716  6285  6288    1
  4717  6289  6290    1
  4718  6289  6291    1
  4719  6289  6292    1
  4720  6293  6294    1
  4721  6293  6295    1
  4722  6293  6296    1
  4723  6297  6298    1
  4724  6297  6299    1
  4725  6297  6300    1
  4726  6301  6302    1
  4727  6301  6303    1
  4728  6301  6304    1
  4729  6305  6306    1
  4730  6305  6307    1
  4731  6305  6308    1
  4732  6309  6310    1
  4733  6309  6311    1
  4734  6309  6312    1
  4735  6313  6314    1
  4736  6313  6315    1
  4737  6313  6316    1
  4738  6317  6318    1
  4739  6317  6319    1
  4740  6317  6320    1
  4741  6321  6322    1
  4742  6321  6323    1
  4743  6321  6324    1
  4744  6325  6326    1
  4745  6325  6327    1
  4746  6325  6328    1
  4747  6329  6330    1
  4748  6329  6331    1
  4749  6329  6332    1
  4750  6333  6334    1
  4751  6333  6335    1
  4752  6333  6336    1
  4753  6337  6338    1
  4754  6337  6339    1
  4755  6337  6340    1
  4756  6341  6342    1
  4757  6341  6343    1
  4758  6341  6344    1
  4759  6345  6346    1
  4760  6345  6347    1
  4761  6345  6348    1
  4762  6349  6350    1
  4763  6349  6351    1
  4764  6349  6352    1
  4765  6353  6354    1
  4766  6353  6355    1
  4767  6353  6356    1
  4768  6357  6358    1
  4769  6357  6359    1
  4770  6357  6360    1
  4771  6361  6362    1
  4772  6361  6363    1
  4773  6361  6364    1
  4774  6365  6366    1
  4775  6365  6367    1
  4776  6365  6368    1
  4777  6369  6370    1
  4778  6369  6371    1
  4779  6369  6372    1
  4780  6373  6374    1
  4781  6373  6375    1
  4782  6373  6376    1
  4783  6377  6378    1
  4784  6377  6379    1
  4785  6377  6380    1
  4786  6381  6382    1
  4787  6381  6383    1
  4788  6381  6384    1
  4789  6385  6386    1
  4790  6385  6387    1
  4791  6385  6388    1
  4792  6389  6390    1
  4793  6389  6391    1
  4794  6389  6392    1
  4795  6393  6394    1
  4796  6393  6395    1
  4797  6393  6396    1
  4798  6397  6398    1
  4799  6397  6399    1
  4800  6397  6400    1
  4801  6401  6402    1
  4802  6401  6403    1
  4803  6401  6404    1
  4804  6405  6406    1
  4805  6405  6407    1
  4806  6405  6408    1
  4807  6409  6410    1
  4808  6409  6411    1
  4809  6409  6412    1
  4810  6413  6414    1
  4811  6413  6415    1
  4812  6413  6416    1
  4813  6417  6418    1
  4814  6417  6419    1
  4815  6417  6420    1
  4816  6421  6422    1
  4817  6421  6423    1
  4818  6421  6424    1
  4819  6425  6426    1
  4820  6425  6427    1
  4821  6425  6428    1
  4822  6429  6430    1
  4823  6429  6431    1
  4824  6429  6432    1
  4825  6433  6434    1
  4826  6433  6435    1
  4827  6433  6436    1
  4828  6437  6438    1
  4829  6437  6439    1
  4830  6437  6440    1
  4831  6441  6442    1
  4832  6441  6443    1
  4833  6441  6444    1
  4834  6445  6446    1
  4835  6445  6447    1
  4836  6445  6448    1
  4837  6449  6450    1
  4838  6449  6451    1
  4839  6449  6452    1
  4840  6453  6454    1
  4841  6453  6455    1
  4842  6453  6456    1
  4843  6457  6458    1
  4844  6457  6459    1
  4845  6457  6460    1
  4846  6461  6462    1
  4847  6461  6463    1
  4848  6461  6464    1
  4849  6465  6466    1
  4850  6465  6467    1
  4851  6465  6468    1
  4852  6469  6470    1
  4853  6469  6471    1
  4854  6469  6472    1
  4855  6473  6474    1
  4856  6473  6475    1
  4857  6473  6476    1
  4858  6477  6478    1
  4859  6477  6479    1
  4860  6477  6480    1
  4861  6481  6482    1
  4862  6481  6483    1
  4863  6481  6484    1
  4864  6485  6486    1
  4865  6485  6487    1
  4866  6485  6488    1
  4867  6489  6490    1
  4868  6489  6491    1
  4869  6489  6492    1
  4870  6493  6494    1
  4871  6493  6495    1
  4872  6493  6496    1
  4873  6497  6498    1
  4874  6497  6499    1
  4875  6497  6500    1
  4876  6501  6502    1
  4877  6501  6503    1
  4878  6501  6504    1
  4879  6505  6506    1
  4880  6505  6507    1
  4881  6505  6508    1
  4882  6509  6510    1
  4883  6509  6511    1
  4884  6509  6512    1
  4885  6513  6514    1
  4886  6513  6515    1
  4887  6513  6516    1
  4888  6517  6518    1
  4889  6517  6519    1
  4890  6517  6520    1
  4891  6521  6522    1
  4892  6521  6523    1
  4893  6521  6524    1
  4894  6525  6526    1
  4895  6525  6527    1
  4896  6525  6528    1
  4897  6529  6530    1
  4898  6529  6531    1
  4899  6529  6532    1
  4900  6533  6534    1
  4901  6533  6535    1
  4902  6533  6536    1
  4903  6537  6538    1
  4904  6537  6539    1
  4905  6537  6540    1
  4906  6541  6542    1
  4907  6541  6543    1
  4908  6541  6544    1
  4909  6545  6546    1
  4910  6545  6547    1
  4911  6545  6548    1
  4912  6549  6550    1
  4913  6549  6551    1
  4914  6549  6552    1
  4915  6553  6554    1
  4916  6553  6555    1
  4917  6553  6556    1
  4918  6557  6558    1
  4919  6557  6559    1
  4920  6557  6560    1
  4921  6561  6562    1
  4922  6561  6563    1
  4923  6561  6564    1
  4924  6565  6566    1
  4925  6565  6567    1
  4926  6565  6568    1
  4927  6569  6570    1
  4928  6569  6571    1
  4929  6569  6572    1
  4930  6573  6574    1
  4931  6573  6575    1
  4932  6573  6576    1
  4933  6577  6578    1
  4934  6577  6579    1
  4935  6577  6580    1
  4936  6581  6582    1
  4937  6581  6583    1
  4938  6581  6584    1
  4939  6585  6586    1
  4940  6585  6587    1
  4941  6585  6588    1
  4942  6589  6590    1
  4943  6589  6591    1
  4944  6589  6592    1
  4945  6593  6594    1
  4946  6593  6595    1
  4947  6593  6596    1
  4948  6597  6598    1
  4949  6597  6599    1
  4950  6597  6600    1
  4951  6601  6602    1
  4952  6601  6603    1
  4953  6601  6604    1
  4954  6605  6606    1
  4955  6605  6607    1
  4956  6605  6608    1
  4957  6609  6610    1
  4958  6609  6611    1
  4959  6609  6612    1
  4960  6613  6614    1
  4961  6613  6615    1
  4962  6613  6616    1
  4963  6617  6618    1
  4964  6617  6619    1
  4965  6617  6620    1
  4966  6621  6622    1
  4967  6621  6623    1
  4968  6621  6624    1
  4969  6625  6626    1
  4970  6625  6627    1
  4971  6625  6628    1
  4972  6629  6630    1
  4973  6629  6631    1
  4974  6629  6632    1
  4975  6633  6634    1
  4976  6633  6635    1
  4977  6633  6636    1
  4978  6637  6638    1
  4979  6637  6639    1
  4980  6637  6640    1
  4981  6641  6642    1
  4982  6641  6643    1
  4983  6641  6644    1
  4984  6645  6646    1
  4985  6645  6647    1
  4986  6645  6648    1
  4987  6649  6650    1
  4988  6649  6651    1
  4989  6649  6652    1
  4990  6653  6654    1
  4991  6653  6655    1
  4992  6653  6656    1
  4993  6657  6658    1
  4994  6657  6659    1
  4995  6657  6660    1
  4996  6661  6662    1
  4997  6661  6663    1
  4998  6661  6664    1
  4999  6665  6666    1
  5000  6665  6667    1
  5001  6665  6668    1
  5002  6669  6670    1
  5003  6669  6671    1
  5004  6669  6672    1
  5005  6673  6674    1
  5006  6673  6675    1
  5007  6673  6676    1
  5008  6677  6678    1
  5009  6677  6679    1
  5010  6677  6680    1
  5011  6681  6682    1
  5012  6681  6683    1
  5013  6681  6684    1
  5014  6685  6686    1
  5015  6685  6687    1
  5016  6685  6688    1
  5017  6689  6690    1
  5018  6689  6691    1
  5019  6689  6692    1
  5020  6693  6694    1
  5021  6693  6695    1
  5022  6693  6696    1
  5023  6697  6698    1
  5024  6697  6699    1
  5025  6697  6700    1
  5026  6701  6702    1
  5027  6701  6703    1
  5028  6701  6704    1
  5029  6705  6706    1
  5030  6705  6707    1
  5031  6705  6708    1
  5032  6709  6710    1
  5033  6709  6711    1
  5034  6709  6712    1
  5035  6713  6714    1
  5036  6713  6715    1
  5037  6713  6716    1
  5038  6717  6718    1
  5039  6717  6719    1
  5040  6717  6720    1
  5041  6721  6722    1
  5042  6721  6723    1
  5043  6721  6724    1
  5044  6725  6726    1
  5045  6725  6727    1
  5046  6725  6728    1
  5047  6729  6730    1
  5048  6729  6731    1
  5049  6729  6732    1
  5050  6733  6734    1
  5051  6733  6735    1
  5052  6733  6736    1
  5053  6737  6738    1
  5054  6737  6739    1
  5055  6737  6740    1
  5056  6741  6742    1
  5057  6741  6743    1
  5058  6741  6744    1
  5059  6745  6746    1
  5060  6745  6747    1
  5061  6745  6748    1
  5062  6749  6750    1
  5063  6749  6751    1
  5064  6749  6752    1
  5065  6753  6754    1
  5066  6753  6755    1
  5067  6753  6756    1
  5068  6757  6758    1
  5069  6757  6759    1
  5070  6757  6760    1
  5071  6761  6762    1
  5072  6761  6763    1
  5073  6761  6764    1
  5074  6765  6766    1
  5075  6765  6767    1
  5076  6765  6768    1
  5077  6769  6770    1
  5078  6769  6771    1
  5079  6769  6772    1
  5080  6773  6774    1
  5081  6773  6775    1
  5082  6773  6776    1
  5083  6777  6778    1
  5084  6777  6779    1
  5085  6777  6780    1
  5086  6781  6782    1
  5087  6781  6783    1
  5088  6781  6784    1
  5089  6785  6786    1
  5090  6785  6787    1
  5091  6785  6788    1
  5092  6789  6790    1
  5093  6789  6791    1
  5094  6789  6792    1
  5095  6793  6794    1
  5096  6793  6795    1
  5097  6793  6796    1
  5098  6797  6798    1
  5099  6797  6799    1
  5100  6797  6800    1
  5101  6801  6802    1
  5102  6801  6803    1
  5103  6801  6804    1
  5104  6805  6806    1
  5105  6805  6807    1
  5106  6805  6808    1
  5107  6809  6810    1
  5108  6809  6811    1
  5109  6809  6812    1
  5110  6813  6814    1
  5111  6813  6815    1
  5112  6813  6816    1
  5113  6817  6818    1
  5114  6817  6819    1
  5115  6817  6820    1
  5116  6821  6822    1
  5117  6821  6823    1
  5118  6821  6824    1
  5119  6825  6826    1
  5120  6825  6827    1
  5121  6825  6828    1
  5122  6829  6830    1
  5123  6829  6831    1
  5124  6829  6832    1
  5125  6833  6834    1
  5126  6833  6835    1
  5127  6833  6836    1
  5128  6837  6838    1
  5129  6837  6839    1
  5130  6837  6840    1
  5131  6841  6842    1
  5132  6841  6843    1
  5133  6841  6844    1
  5134  6845  6846    1
  5135  6845  6847    1
  5136  6845  6848    1
  5137  6849  6850    1
  5138  6849  6851    1
  5139  6849  6852    1
  5140  6853  6854    1
  5141  6853  6855    1
  5142  6853  6856    1
  5143  6857  6858    1
  5144  6857  6859    1
  5145  6857  6860    1
  5146  6861  6862    1
  5147  6861  6863    1
  5148  6861  6864    1
  5149  6865  6866    1
  5150  6865  6867    1
  5151  6865  6868    1
  5152  6869  6870    1
  5153  6869  6871    1
  5154  6869  6872    1
  5155  6873  6874    1
  5156  6873  6875    1
  5157  6873  6876    1
  5158  6877  6878    1
  5159  6877  6879    1
  5160  6877  6880    1
  5161  6881  6882    1
  5162  6881  6883    1
  5163  6881  6884    1
  5164  6885  6886    1
  5165  6885  6887    1
  5166  6885  6888    1
  5167  6889  6890    1
  5168  6889  6891    1
  5169  6889  6892    1
  5170  6893  6894    1
  5171  6893  6895    1
  5172  6893  6896    1
  5173  6897  6898    1
  5174  6897  6899    1
  5175  6897  6900    1
  5176  6901  6902    1
  5177  6901  6903    1
  5178  6901  6904    1
  5179  6905  6906    1
  5180  6905  6907    1
  5181  6905  6908    1
  5182  6909  6910    1
  5183  6909  6911    1
  5184  6909  6912    1
  5185  6913  6914    1
  5186  6913  6915    1
  5187  6913  6916    1
  5188  6917  6918    1
  5189  6917  6919    1
  5190  6917  6920    1
  5191  6921  6922    1
  5192  6921  6923    1
  5193  6921  6924    1
  5194  6925  6926    1
  5195  6925  6927    1
  5196  6925  6928    1
  5197  6929  6930    1
  5198  6929  6931    1
  5199  6929  6932    1
  5200  6933  6934    1
  5201  6933  6935    1
  5202  6933  6936    1
  5203  6937  6938    1
  5204  6937  6939    1
  5205  6937  6940    1
  5206  6941  6942    1
  5207  6941  6943    1
  5208  6941  6944    1
  5209  6945  6946    1
  5210  6945  6947    1
  5211  6945  6948    1
  5212  6949  6950    1
  5213  6949  6951    1
  5214  6949  6952    1
  5215  6953  6954    1
  5216  6953  6955    1
  5217  6953  6956    1
  5218  6957  6958    1
  5219  6957  6959    1
  5220  6957  6960    1
  5221  6961  6962    1
  5222  6961  6963    1
  5223  6961  6964    1
  5224  6965  6966    1
  5225  6965  6967    1
  5226  6965  6968    1
  5227  6969  6970    1
  5228  6969  6971    1
  5229  6969  6972    1
  5230  6973  6974    1
  5231  6973  6975    1
  5232  6973  6976    1
  5233  6977  6978    1
  5234  6977  6979    1
  5235  6977  6980    1
  5236  6981  6982    1
  5237  6981  6983    1
  5238  6981  6984    1
  5239  6985  6986    1
  5240  6985  6987    1
  5241  6985  6988    1
  5242  6989  6990    1
  5243  6989  6991    1
  5244  6989  6992    1
  5245  6993  6994    1
  5246  6993  6995    1
  5247  6993  6996    1
  5248  6997  6998    1
  5249  6997  6999    1
  5250  6997  7000    1
  5251  7001  7002    1
  5252  7001  7003    1
  5253  7001  7004    1
  5254  7005  7006    1
  5255  7005  7007    1
  5256  7005  7008    1
  5257  7009  7010    1
  5258  7009  7011    1
  5259  7009  7012    1
  5260  7013  7014    1
  5261  7013  7015    1
  5262  7013  7016    1
  5263  7017  7018    1
  5264  7017  7019    1
  5265  7017  7020    1
  5266  7021  7022    1
  5267  7021  7023    1
  5268  7021  7024    1
  5269  7025  7026    1
  5270  7025  7027    1
  5271  7025  7028    1
  5272  7029  7030    1
  5273  7029  7031    1
  5274  7029  7032    1
  5275  7033  7034    1
  5276  7033  7035    1
  5277  7033  7036    1
  5278  7037  7038    1
  5279  7037  7039    1
  5280  7037  7040    1
  5281  7041  7042    1
  5282  7041  7043    1
  5283  7041  7044    1
  5284  7045  7046    1
  5285  7045  7047    1
  5286  7045  7048    1
  5287  7049  7050    1
  5288  7049  7051    1
  5289  7049  7052    1
  5290  7053  7054    1
  5291  7053  7055    1
  5292  7053  7056    1
  5293  7057  7058    1
  5294  7057  7059    1
  5295  7057  7060    1
  5296  7061  7062    1
  5297  7061  7063    1
  5298  7061  7064    1
  5299  7065  7066    1
  5300  7065  7067    1
  5301  7065  7068    1
  5302  7069  7070    1
  5303  7069  7071    1
  5304  7069  7072    1
  5305  7073  7074    1
  5306  7073  7075    1
  5307  7073  7076    1
  5308  7077  7078    1
  5309  7077  7079    1
  5310  7077  7080    1
  5311  7081  7082    1
  5312  7081  7083    1
  5313  7081  7084    1
  5314  7085  7086    1
  5315  7085  7087    1
  5316  7085  7088    1
  5317  7089  7090    1
  5318  7089  7091    1
  5319  7089  7092    1
  5320  7093  7094    1
  5321  7093  7095    1
  5322  7093  7096    1
  5323  7097  7098    1
  5324  7097  7099    1
  5325  7097  7100    1
  5326  7101  7102    1
  5327  7101  7103    1
  5328  7101  7104    1
  5329  7105  7106    1
  5330  7105  7107    1
  5331  7105  7108    1
  5332  7109  7110    1
  5333  7109  7111    1
  5334  7109  7112    1
  5335  7113  7114    1
  5336  7113  7115    1
  5337  7113  7116    1
  5338  7117  7118    1
  5339  7117  7119    1
  5340  7117  7120    1
  5341  7121  7122    1
  5342  7121  7123    1
  5343  7121  7124    1
  5344  7125  7126    1
  5345  7125  7127    1
  5346  7125  7128    1
  5347  7129  7130    1
  5348  7129  7131    1
  5349  7129  7132    1
  5350  7133  7134    1
  5351  7133  7135    1
  5352  7133  7136    1
  5353  7137  7138    1
  5354  7137  7139    1
  5355  7137  7140    1
  5356  7141  7142    1
  5357  7141  7143    1
  5358  7141  7144    1
  5359  7145  7146    1
  5360  7145  7147    1
  5361  7145  7148    1
  5362  7149  7150    1
  5363  7149  7151    1
  5364  7149  7152    1
  5365  7153  7154    1
  5366  7153  7155    1
  5367  7153  7156    1
  5368  7157  7158    1
  5369  7157  7159    1
  5370  7157  7160    1
  5371  7161  7162    1
  5372  7161  7163    1
  5373  7161  7164    1
  5374  7165  7166    1
  5375  7165  7167    1
  5376  7165  7168    1
  5377  7169  7170    1
  5378  7169  7171    1
  5379  7169  7172    1
  5380  7173  7174    1
  5381  7173  7175    1
  5382  7173  7176    1
  5383  7177  7178    1
  5384  7177  7179    1
  5385  7177  7180    1
  5386  7181  7182    1
  5387  7181  7183    1
  5388  7181  7184    1
  5389  7185  7186    1
  5390  7185  7187    1
  5391  7185  7188    1
  5392  7189  7190    1
  5393  7189  7191    1
  5394  7189  7192    1
  5395  7193  7194    1
  5396  7193  7195    1
  5397  7193  7196    1
  5398  7197  7198    1
  5399  7197  7199    1
  5400  7197  7200    1
  5401  7201  7202    1
  5402  7201  7203    1
  5403  7201  7204    1
  5404  7205  7206    1
  5405  7205  7207    1
  5406  7205  7208    1
  5407  7209  7210    1
  5408  7209  7211    1
  5409  7209  7212    1
  5410  7213  7214    1
  5411  7213  7215    1
  5412  7213  7216    1
  5413  7217  7218    1
  5414  7217  7219    1
  5415  7217  7220    1
  5416  7221  7222    1
  5417  7221  7223    1
  5418  7221  7224    1
  5419  7225  7226    1
  5420  7225  7227    1
  5421  7225  7228    1
  5422  7229  7230    1
  5423  7229  7231    1
  5424  7229  7232    1
  5425  7233  7234    1
  5426  7233  7235    1
  5427  7233  7236    1
  5428  7237  7238    1
  5429  7237  7239    1
  5430  7237  7240    1
  5431  7241  7242    1
  5432  7241  7243    1
  5433  7241  7244    1
  5434  7245  7246    1
  5435  7245  7247    1
  5436  7245  7248    1
  5437  7249  7250    1
  5438  7249  7251    1
  5439  7249  7252    1
  5440  7253  7254    1
  5441  7253  7255    1
  5442  7253  7256    1
  5443  7257  7258    1
  5444  7257  7259    1
  5445  7257  7260    1
  5446  7261  7262    1
  5447  7261  7263    1
  5448  7261  7264    1
  5449  7265  7266    1
  5450  7265  7267    1
  5451  7265  7268    1
  5452  7269  7270    1
  5453  7269  7271    1
  5454  7269  7272    1
  5455  7273  7274    1
  5456  7273  7275    1
  5457  7273  7276    1
  5458  7277  7278    1
  5459  7277  7279    1
  5460  7277  7280    1
  5461  7281  7282    1
  5462  7281  7283    1
  5463  7281  7284    1
  5464  7285  7286    1
  5465  7285  7287    1
  5466  7285  7288    1
  5467  7289  7290    1
  5468  7289  7291    1
  5469  7289  7292    1
  5470  7293  7294    1
  5471  7293  7295    1
  5472  7293  7296    1
  5473  7297  7298    1
  5474  7297  7299    1
  5475  7297  7300    1
  5476  7301  7302    1
  5477  7301  7303    1
  5478  7301  7304    1
  5479  7305  7306    1
  5480  7305  7307    1
  5481  7305  7308    1
  5482  7309  7310    1
  5483  7309  7311    1
  5484  7309  7312    1
  5485  7313  7314    1
  5486  7313  7315    1
  5487  7313  7316    1
  5488  7317  7318    1
  5489  7317  7319    1
  5490  7317  7320    1
  5491  7321  7322    1
  5492  7321  7323    1
  5493  7321  7324    1
  5494  7325  7326    1
  5495  7325  7327    1
  5496  7325  7328    1
  5497  7329  7330    1
  5498  7329  7331    1
  5499  7329  7332    1
  5500  7333  7334    1
  5501  7333  7335    1
  5502  7333  7336    1
  5503  7337  7338    1
  5504  7337  7339    1
  5505  7337  7340    1
  5506  7341  7342    1
  5507  7341  7343    1
  5508  7341  7344    1
  5509  7345  7346    1
  5510  7345  7347    1
  5511  7345  7348    1
  5512  7349  7350    1
  5513  7349  7351    1
  5514  7349  7352    1
  5515  7353  7354    1
  5516  7353  7355    1
  5517  7353  7356    1
  5518  7357  7358    1
  5519  7357  7359    1
  5520  7357  7360    1
  5521  7361  7362    1
  5522  7361  7363    1
  5523  7361  7364    1
  5524  7365  7366    1
  5525  7365  7367    1
  5526  7365  7368    1
  5527  7369  7370    1
  5528  7369  7371    1
  5529  7369  7372    1
  5530  7373  7374    1
  5531  7373  7375    1
  5532  7373  7376    1
  5533  7377  7378    1
  5534  7377  7379    1
  5535  7377  7380    1
  5536  7381  7382    1
  5537  7381  7383    1
  5538  7381  7384    1
  5539  7385  7386    1
  5540  7385  7387    1
  5541  7385  7388    1
  5542  7389  7390    1
  5543  7389  7391    1
  5544  7389  7392    1
  5545  7393  7394    1
  5546  7393  7395    1
  5547  7393  7396    1
  5548  7397  7398    1
  5549  7397  7399    1
  5550  7397  7400    1
  5551  7401  7402    1
  5552  7401  7403    1
  5553  7401  7404    1
  5554  7405  7406    1
  5555  7405  7407    1
  5556  7405  7408    1
  5557  7409  7410    1
  5558  7409  7411    1
  5559  7409  7412    1
  5560  7413  7414    1
  5561  7413  7415    1
  5562  7413  7416    1
  5563  7417  7418    1
  5564  7417  7419    1
  5565  7417  7420    1
  5566  7421  7422    1
  5567  7421  7423    1
  5568  7421  7424    1
  5569  7425  7426    1
  5570  7425  7427    1
  5571  7425  7428    1
  5572  7429  7430    1
  5573  7429  7431    1
  5574  7429  7432    1
  5575  7433  7434    1
  5576  7433  7435    1
  5577  7433  7436    1
  5578  7437  7438    1
  5579  7437  7439    1
  5580  7437  7440    1
  5581  7441  7442    1
  5582  7441  7443    1
  5583  7441  7444    1
  5584  7445  7446    1
  5585  7445  7447    1
  5586  7445  7448    1
  5587  7449  7450    1
  5588  7449  7451    1
  5589  7449  7452    1
  5590  7453  7454    1
  5591  7453  7455    1
  5592  7453  7456    1
  5593  7457  7458    1
  5594  7457  7459    1
  5595  7457  7460    1
  5596  7461  7462    1
  5597  7461  7463    1
  5598  7461  7464    1
  5599  7465  7466    1
  5600  7465  7467    1
  5601  7465  7468    1
  5602  7469  7470    1
  5603  7469  7471    1
  5604  7469  7472    1
  5605  7473  7474    1
  5606  7473  7475    1
  5607  7473  7476    1
  5608  7477  7478    1
  5609  7477  7479    1
  5610  7477  7480    1
  5611  7481  7482    1
  5612  7481  7483    1
  5613  7481  7484    1
  5614  7485  7486    1
  5615  7485  7487    1
  5616  7485  7488    1
  5617  7489  7490    1
  5618  7489  7491    1
  5619  7489  7492    1
  5620  7493  7494    1
  5621  7493  7495    1
  5622  7493  7496    1
  5623  7497  7498    1
  5624  7497  7499    1
  5625  7497  7500    1
  5626  7501  7502    1
  5627  7501  7503    1
  5628  7501  7504    1
  5629  7505  7506    1
  5630  7505  7507    1
  5631  7505  7508    1
  5632  7509  7510    1
  5633  7509  7511    1
  5634  7509  7512    1
  5635  7513  7514    1
  5636  7513  7515    1
  5637  7513  7516    1
  5638  7517  7518    1
  5639  7517  7519    1
  5640  7517  7520    1
  5641  7521  7522    1
  5642  7521  7523    1
  5643  7521  7524    1
  5644  7525  7526    1
  5645  7525  7527    1
  5646  7525  7528    1
  5647  7529  7530    1
  5648  7529  7531    1
  5649  7529  7532    1
  5650  7533  7534    1
  5651  7533  7535    1
  5652  7533  7536    1
  5653  7537  7538    1
  5654  7537  7539    1
  5655  7537  7540    1
  5656  7541  7542    1
  5657  7541  7543    1
  5658  7541  7544    1
  5659  7545  7546    1
  5660  7545  7547    1
  5661  7545  7548    1
  5662  7549  7550    1
  5663  7549  7551    1
  5664  7549  7552    1
  5665  7553  7554    1
  5666  7553  7555    1
  5667  7553  7556    1
  5668  7557  7558    1
  5669  7557  7559    1
  5670  7557  7560    1
  5671  7561  7562    1
  5672  7561  7563    1
  5673  7561  7564    1
  5674  7565  7566    1
  5675  7565  7567    1
  5676  7565  7568    1
  5677  7569  7570    1
  5678  7569  7571    1
  5679  7569  7572    1
  5680  7573  7574    1
  5681  7573  7575    1
  5682  7573  7576    1
  5683  7577  7578    1
  5684  7577  7579    1
  5685  7577  7580    1
  5686  7581  7582    1
  5687  7581  7583    1
  5688  7581  7584    1
  5689  7585  7586    1
  5690  7585  7587    1
  5691  7585  7588    1
  5692  7589  7590    1
  5693  7589  7591    1
  5694  7589  7592    1
  5695  7593  7594    1
  5696  7593  7595    1
  5697  7593  7596    1
  5698  7597  7598    1
  5699  7597  7599    1
  5700  7597  7600    1
  5701  7601  7602    1
  5702  7601  7603    1
  5703  7601  7604    1
  5704  7605  7606    1
  5705  7605  7607    1
  5706  7605  7608    1
  5707  7609  7610    1
  5708  7609  7611    1
  5709  7609  7612    1
  5710  7613  7614    1
  5711  7613  7615    1
  5712  7613  7616    1
  5713  7617  7618    1
  5714  7617  7619    1
  5715  7617  7620    1
  5716  7621  7622    1
  5717  7621  7623    1
  5718  7621  7624    1
  5719  7625  7626    1
  5720  7625  7627    1
  5721  7625  7628    1
  5722  7629  7630    1
  5723  7629  7631    1
  5724  7629  7632    1
  5725  7633  7634    1
  5726  7633  7635    1
  5727  7633  7636    1
  5728  7637  7638    1
  5729  7637  7639    1
  5730  7637  7640    1
  5731  7641  7642    1
  5732  7641  7643    1
  5733  7641  7644    1
  5734  7645  7646    1
  5735  7645  7647    1
  5736  7645  7648    1
  5737  7649  7650    1
  5738  7649  7651    1
  5739  7649  7652    1
  5740  7653  7654    1
  5741  7653  7655    1
  5742  7653  7656    1
  5743  7657  7658    1
  5744  7657  7659    1
  5745  7657  7660    1
  5746  7661  7662    1
  5747  7661  7663    1
  5748  7661  7664    1
  5749  7665  7666    1
  5750  7665  7667    1
  5751  7665  7668    1
  5752  7669  7670    1
  5753  7669  7671    1
  5754  7669  7672    1
  5755  7673  7674    1
  5756  7673  7675    1
  5757  7673  7676    1
  5758  7677  7678    1
  5759  7677  7679    1
  5760  7677  7680    1
  5761  7681  7682    1
  5762  7681  7683    1
  5763  7681  7684    1
  5764  7685  7686    1
  5765  7685  7687    1
  5766  7685  7688    1
  5767  7689  7690    1
  5768  7689  7691    1
  5769  7689  7692    1
  5770  7693  7694    1
  5771  7693  7695    1
  5772  7693  7696    1
  5773  7697  7698    1
  5774  7697  7699    1
  5775  7697  7700    1
  5776  7701  7702    1
  5777  7701  7703    1
  5778  7701  7704    1
  5779  7705  7706    1
  5780  7705  7707    1
  5781  7705  7708    1
  5782  7709  7710    1
  5783  7709  7711    1
  5784  7709  7712    1
  5785  7713  7714    1
  5786  7713  7715    1
  5787  7713  7716    1
  5788  7717  7718    1
  5789  7717  7719    1
  5790  7717  7720    1
  5791  7721  7722    1
  5792  7721  7723    1
  5793  7721  7724    1
  5794  7725  7726    1
  5795  7725  7727    1
  5796  7725  7728    1
  5797  7729  7730    1
  5798  7729  7731    1
  5799  7729  7732    1
  5800  7733  7734    1
  5801  7733  7735    1
  5802  7733  7736    1
  5803  7737  7738    1
  5804  7737  7739    1
  5805  7737  7740    1
  5806  7741  7742    1
  5807  7741  7743    1
  5808  7741  7744    1
  5809  7745  7746    1
  5810  7745  7747    1
  5811  7745  7748    1
  5812  7749  7750    1
  5813  7749  7751    1
  5814  7749  7752    1
  5815  7753  7754    1
  5816  7753  7755    1
  5817  7753  7756    1
  5818  7757  7758    1
  5819  7757  7759    1
  5820  7757  7760    1
  5821  7761  7762    1
  5822  7761  7763    1
  5823  7761  7764    1
  5824  7765  7766    1
  5825  7765  7767    1
  5826  7765  7768    1
  5827  7769  7770    1
  5828  7769  7771    1
  5829  7769  7772    1
  5830  7773  7774    1
  5831  7773  7775    1
  5832  7773  7776    1
  5833  7777  7778    1
  5834  7777  7779    1
  5835  7777  7780    1
  5836  7781  7782    1
  5837  7781  7783    1
  5838  7781  7784    1
  5839  7785  7786    1
  5840  7785  7787    1
  5841  7785  7788    1
  5842  7789  7790    1
  5843  7789  7791    1
  5844  7789  7792    1
  5845  7793  7794    1
  5846  7793  7795    1
  5847  7793  7796    1
  5848  7797  7798    1
  5849  7797  7799    1
  5850  7797  7800    1
  5851  7801  7802    1
  5852  7801  7803    1
  5853  7801  7804    1
  5854  7805  7806    1
  5855  7805  7807    1
  5856  7805  7808    1
  5857  7809  7810    1
  5858  7809  7811    1
  5859  7809  7812    1
  5860  7813  7814    1
  5861  7813  7815    1
  5862  7813  7816    1
  5863  7817  7818    1
  5864  7817  7819    1
  5865  7817  7820    1
  5866  7821  7822    1
  5867  7821  7823    1
  5868  7821  7824    1
  5869  7825  7826    1
  5870  7825  7827    1
  5871  7825  7828    1
  5872  7829  7830    1
  5873  7829  7831    1
  5874  7829  7832    1
  5875  7833  7834    1
  5876  7833  7835    1
  5877  7833  7836    1
  5878  7837  7838    1
  5879  7837  7839    1
  5880  7837  7840    1
  5881  7841  7842    1
  5882  7841  7843    1
  5883  7841  7844    1
  5884  7845  7846    1
  5885  7845  7847    1
  5886  7845  7848    1
  5887  7849  7850    1
  5888  7849  7851    1
  5889  7849  7852    1
  5890  7853  7854    1
  5891  7853  7855    1
  5892  7853  7856    1
  5893  7857  7858    1
  5894  7857  7859    1
  5895  7857  7860    1
  5896  7861  7862    1
  5897  7861  7863    1
  5898  7861  7864    1
  5899  7865  7866    1
  5900  7865  7867    1
  5901  7865  7868    1
  5902  7869  7870    1
  5903  7869  7871    1
  5904  7869  7872    1
  5905  7873  7874    1
  5906  7873  7875    1
  5907  7873  7876    1
  5908  7877  7878    1
  5909  7877  7879    1
  5910  7877  7880    1
  5911  7881  7882    1
  5912  7881  7883    1
  5913  7881  7884    1
  5914  7885  7886    1
  5915  7885  7887    1
  5916  7885  7888    1
  5917  7889  7890    1
  5918  7889  7891    1
  5919  7889  7892    1
  5920  7893  7894    1
  5921  7893  7895    1
  5922  7893  7896    1
  5923  7897  7898    1
  5924  7897  7899    1
  5925  7897  7900    1
  5926  7901  7902    1
  5927  7901  7903    1
  5928  7901  7904    1
  5929  7905  7906    1
  5930  7905  7907    1
  5931  7905  7908    1
  5932  7909  7910    1
  5933  7909  7911    1
  5934  7909  7912    1
  5935  7913  7914    1
  5936  7913  7915    1
  5937  7913  7916    1
  5938  7917  7918    1
  5939  7917  7919    1
  5940  7917  7920    1
  5941  7921  7922    1
  5942  7921  7923    1
  5943  7921  7924    1
  5944  7925  7926    1
  5945  7925  7927    1
  5946  7925  7928    1
  5947  7929  7930    1
  5948  7929  7931    1
  5949  7929  7932    1
  5950  7933  7934    1
  5951  7933  7935    1
  5952  7933  7936    1
  5953  7937  7938    1
  5954  7937  7939    1
  5955  7937  7940    1
  5956  7941  7942    1
  5957  7941  7943    1
  5958  7941  7944    1
  5959  7945  7946    1
  5960  7945  7947    1
  5961  7945  7948    1
  5962  7949  7950    1
  5963  7949  7951    1
  5964  7949  7952    1
  5965  7953  7954    1
  5966  7953  7955    1
  5967  7953  7956    1
  5968  7957  7958    1
  5969  7957  7959    1
  5970  7957  7960    1
  5971  7961  7962    1
  5972  7961  7963    1
  5973  7961  7964    1
  5974  7965  7966    1
  5975  7965  7967    1
  5976  7965  7968    1
  5977  7969  7970    1
  5978  7969  7971    1
  5979  7969  7972    1
  5980  7973  7974    1
  5981  7973  7975    1
  5982  7973  7976    1
  5983  7977  7978    1
  5984  7977  7979    1
  5985  7977  7980    1
  5986  7981  7982    1
  5987  7981  7983    1
  5988  7981  7984    1
  5989  7985  7986    1
  5990  7985  7987    1
  5991  7985  7988    1
  5992  7989  7990    1
  5993  7989  7991    1
  5994  7989  7992    1
  5995  7993  7994    1
  5996  7993  7995    1
  5997  7993  7996    1
  5998  7997  7998    1
  5999  7997  7999    1
  6000  7997  8000    1
  6001  8001  8002    1
  6002  8001  8003    1
  6003  8001  8004    1
  6004  8005  8006    1
  6005  8005  8007    1
  6006  8005  8008    1
  6007  8009  8010    1
  6008  8009  8011    1
  6009  8009  8012    1
  6010  8013  8014    1
  6011  8013  8015    1
  6012  8013  8016    1
  6013  8017  8018    1
  6014  8017  8019    1
  6015  8017  8020    1
  6016  8021  8022    1
  6017  8021  8023    1
  6018  8021  8024    1
  6019  8025  8026    1
  6020  8025  8027    1
  6021  8025  8028    1
  6022  8029  8030    1
  6023  8029  8031    1
  6024  8029  8032    1
  6025  8033  8034    1
  6026  8033  8035    1
  6027  8033  8036    1
  6028  8037  8038    1
  6029  8037  8039    1
  6030  8037  8040    1
  6031  8041  8042    1
  6032  8041  8043    1
  6033  8041  8044    1
  6034  8045  8046    1
  6035  8045  8047    1
  6036  8045  8048    1
  6037  8049  8050    1
  6038  8049  8051    1
  6039  8049  8052    1
  6040  8053  8054    1
  6041  8053  8055    1
  6042  8053  8056    1
  6043  8057  8058    1
  6044  8057  8059    1
  6045  8057  8060    1
  6046  8061  8062    1
  6047  8061  8063    1
  6048  8061  8064    1
  6049  8065  8066    1
  6050  8065  8067    1
  6051  8065  8068    1
  6052  8069  8070    1
  6053  8069  8071    1
  6054  8069  8072    1
  6055  8073  8074    1
  6056  8073  8075    1
  6057  8073  8076    1
  6058  8077  8078    1
  6059  8077  8079    1
  6060  8077  8080    1
  6061  8081  8082    1
  6062  8081  8083    1
  6063  8081  8084    1
  6064  8085  8086    1
  6065  8085  8087    1
  6066  8085  8088    1
  6067  8089  8090    1
  6068  8089  8091    1
  6069  8089  8092    1
  6070  8093  8094    1
  6071  8093  8095    1
  6072  8093  8096    1
  6073  8097  8098    1
  6074  8097  8099    1
  6075  8097  8100    1
  6076  8101  8102    1
  6077  8101  8103    1
  6078  8101  8104    1
  6079  8105  8106    1
  6080  8105  8107    1
  6081  8105  8108    1
  6082  8109  8110    1
  6083  8109  8111    1
  6084  8109  8112    1
  6085  8113  8114    1
  6086  8113  8115    1
  6087  8113  8116    1
  6088  8117  8118    1
  6089  8117  8119    1
  6090  8117  8120    1
  6091  8121  8122    1
  6092  8121  8123    1
  6093  8121  8124    1
  6094  8125  8126    1
  6095  8125  8127    1
  6096  8125  8128    1
  6097  8129  8130    1
  6098  8129  8131    1
  6099  8129  8132    1
  6100  8133  8134    1
  6101  8133  8135    1
  6102  8133  8136    1
  6103  8137  8138    1
  6104  8137  8139    1
  6105  8137  8140    1
  6106  8141  8142    1
  6107  8141  8143    1
  6108  8141  8144    1
  6109  8145  8146    1
  6110  8145  8147    1
  6111  8145  8148    1
  6112  8149  8150    1
  6113  8149  8151    1
  6114  8149  8152    1
  6115  8153  8154    1
  6116  8153  8155    1
  6117  8153  8156    1
  6118  8157  8158    1
  6119  8157  8159    1
  6120  8157  8160    1
  6121  8161  8162    1
  6122  8161  8163    1
  6123  8161  8164    1
  6124  8165  8166    1
  6125  8165  8167    1
  6126  8165  8168    1
  6127  8169  8170    1
  6128  8169  8171    1
  6129  8169  8172    1
  6130  8173  8174    1
  6131  8173  8175    1
  6132  8173  8176    1
  6133  8177  8178    1
  6134  8177  8179    1
  6135  8177  8180    1
  6136  8181  8182    1
  6137  8181  8183    1
  6138  8181  8184    1
  6139  8185  8186    1
  6140  8185  8187    1
  6141  8185  8188    1
  6142  8189  8190    1
  6143  8189  8191    1
  6144  8189  8192    1
  6145  8193  8194    1
  6146  8193  8195    1
  6147  8193  8196    1
  6148  8197  8198    1
  6149  8197  8199    1
  6150  8197  8200    1
  6151  8201  8202    1
  6152  8201  8203    1
  6153  8201  8204    1
  6154  8205  8206    1
  6155  8205  8207    1
  6156  8205  8208    1
  6157  8209  8210    1
  6158  8209  8211    1
  6159  8209  8212    1
  6160  8213  8214    1
  6161  8213  8215    1
  6162  8213  8216    1
  6163  8217  8218    1
  6164  8217  8219    1
  6165  8217  8220    1
  6166  8221  8222    1
  6167  8221  8223    1
  6168  8221  8224    1
  6169  8225  8226    1
  6170  8225  8227    1
  6171  8225  8228    1
  6172  8229  8230    1
  6173  8229  8231    1
  6174  8229  8232    1
  6175  8233  8234    1
  6176  8233  8235    1
  6177  8233  8236    1
  6178  8237  8238    1
  6179  8237  8239    1
  6180  8237  8240    1
  6181  8241  8242    1
  6182  8241  8243    1
  6183  8241  8244    1
  6184  8245  8246    1
  6185  8245  8247    1
  6186  8245  8248    1
  6187  8249  8250    1
  6188  8249  8251    1
  6189  8249  8252    1
  6190  8253  8254    1
  6191  8253  8255    1
  6192  8253  8256    1
  6193  8257  8258    1
  6194  8257  8259    1
  6195  8257  8260    1
  6196  8261  8262    1
  6197  8261  8263    1
  6198  8261  8264    1
  6199  8265  8266    1
  6200  8265  8267    1
  6201  8265  8268    1
  6202  8269  8270    1
  6203  8269  8271    1
  6204  8269  8272    1
  6205  8273  8274    1
  6206  8273  8275    1
  6207  8273  8276    1
  6208  8277  8278    1
  6209  8277  8279    1
  6210  8277  8280    1
  6211  8281  8282    1
  6212  8281  8283    1
  6213  8281  8284    1
  6214  8285  8286    1
  6215  8285  8287    1
  6216  8285  8288    1
  6217  8289  8290    1
  6218  8289  8291    1
  6219  8289  8292    1
  6220  8293  8294    1
  6221  8293  8295    1
  6222  8293  8296    1
  6223  8297  8298    1
  6224  8297  8299    1
  6225  8297  8300    1
  6226  8301  8302    1
  6227  8301  8303    1
  6228  8301  8304    1
  6229  8305  8306    1
  6230  8305  8307    1
  6231  8305  8308    1
  6232  8309  8310    1
  6233  8309  8311    1
  6234  8309  8312    1
  6235  8313  8314    1
  6236  8313  8315    1
  6237  8313  8316    1
  6238  8317  8318    1
  6239  8317  8319    1
  6240  8317  8320    1
  6241  8321  8322    1
  6242  8321  8323    1
  6243  8321  8324    1
  6244  8325  8326    1
  6245  8325  8327    1
  6246  8325  8328    1
  6247  8329  8330    1
  6248  8329  8331    1
  6249  8329  8332    1
  6250  8333  8334    1
  6251  8333  8335    1
  6252  8333  8336    1
  6253  8337  8338    1
  6254  8337  8339    1
  6255  8337  8340    1
  6256  8341  8342    1
  6257  8341  8343    1
  6258  8341  8344    1
  6259  8345  8346    1
  6260  8345  8347    1
  6261  8345  8348    1
  6262  8349  8350    1
  6263  8349  8351    1
  6264  8349  8352    1
  6265  8353  8354    1
  6266  8353  8355    1
  6267  8353  8356    1
  6268  8357  8358    1
  6269  8357  8359    1
  6270  8357  8360    1
  6271  8361  8362    1
  6272  8361  8363    1
  6273  8361  8364    1
  6274  8365  8366    1
  6275  8365  8367    1
  6276  8365  8368    1
  6277  8369  8370    1
  6278  8369  8371    1
  6279  8369  8372    1
  6280  8373  8374    1
  6281  8373  8375    1
  6282  8373  8376    1
  6283  8377  8378    1
  6284  8377  8379    1
  6285  8377  8380    1
  6286  8381  8382    1
  6287  8381  8383    1
  6288  8381  8384    1
  6289  8385  8386    1
  6290  8385  8387    1
  6291  8385  8388    1
  6292  8389  8390    1
  6293  8389  8391    1
  6294  8389  8392    1
  6295  8393  8394    1
  6296  8393  8395    1
  6297  8393  8396    1
  6298  8397  8398    1
  6299  8397  8399    1
  6300  8397  8400    1
  6301  8401  8402    1
  6302  8401  8403    1
  6303  8401  8404    1
  6304  8405  8406    1
  6305  8405  8407    1
  6306  8405  8408    1
  6307  8409  8410    1
  6308  8409  8411    1
  6309  8409  8412    1
  6310  8413  8414    1
  6311  8413  8415    1
  6312  8413  8416    1
  6313  8417  8418    1
  6314  8417  8419    1
  6315  8417  8420    1
  6316  8421  8422    1
  6317  8421  8423    1
  6318  8421  8424    1
  6319  8425  8426    1
  6320  8425  8427    1
  6321  8425  8428    1
  6322  8429  8430    1
  6323  8429  8431    1
  6324  8429  8432    1
  6325  8433  8434    1
  6326  8433  8435    1
  6327  8433  8436    1
  6328  8437  8438    1
  6329  8437  8439    1
  6330  8437  8440    1
  6331  8441  8442    1
  6332  8441  8443    1
  6333  8441  8444    1
  6334  8445  8446    1
  6335  8445  8447    1
  6336  8445  8448    1
  6337  8449  8450    1
  6338  8449  8451    1
  6339  8449  8452    1
  6340  8453  8454    1
  6341  8453  8455    1
  6342  8453  8456    1
  6343  8457  8458    1
  6344  8457  8459    1
  6345  8457  8460    1
  6346  8461  8462    1
  6347  8461  8463    1
  6348  8461  8464    1
  6349  8465  8466    1
  6350  8465  8467    1
  6351  8465  8468    1
  6352  8469  8470    1
  6353  8469  8471    1
  6354  8469  8472    1
  6355  8473  8474    1
  6356  8473  8475    1
  6357  8473  8476    1
  6358  8477  8478    1
  6359  8477  8479    1
  6360  8477  8480    1
  6361  8481  8482    1
  6362  8481  8483    1
  6363  8481  8484    1
  6364  8485  8486    1
  6365  8485  8487    1
  6366  8485  8488    1
  6367  8489  8490    1
  6368  8489  8491    1
  6369  8489  8492    1
  6370  8493  8494    1
  6371  8493  8495    1
  6372  8493  8496    1
  6373  8497  8498    1
  6374  8497  8499    1
  6375  8497  8500    1
  6376  8501  8502    1
  6377  8501  8503    1
  6378  8501  8504    1
  6379  8505  8506    1
  6380  8505  8507    1
  6381  8505  8508    1
  6382  8509  8510    1
  6383  8509  8511    1
  6384  8509  8512    1
  6385  8513  8514    1
  6386  8513  8515    1
  6387  8513  8516    1
  6388  8517  8518    1
  6389  8517  8519    1
  6390  8517  8520    1
  6391  8521  8522    1
  6392  8521  8523    1
  6393  8521  8524    1
  6394  8525  8526    1
  6395  8525  8527    1
  6396  8525  8528    1
  6397  8529  8530    1
  6398  8529  8531    1
  6399  8529  8532    1
  6400  8533  8534    1
  6401  8533  8535    1
  6402  8533  8536    1
  6403  8537  8538    1
  6404  8537  8539    1
  6405  8537  8540    1
  6406  8541  8542    1
  6407  8541  8543    1
  6408  8541  8544    1
  6409  8545  8546    1
  6410  8545  8547    1
  6411  8545  8548    1
  6412  8549  8550    1
  6413  8549  8551    1
  6414  8549  8552    1
  6415  8553  8554    1
  6416  8553  8555    1
  6417  8553  8556    1
  6418  8557  8558    1
  6419  8557  8559    1
  6420  8557  8560    1
  6421  8561  8562    1
  6422  8561  8563    1
  6423  8561  8564    1
  6424  8565  8566    1
  6425  8565  8567    1
  6426  8565  8568    1
  6427  8569  8570    1
  6428  8569  8571    1
  6429  8569  8572    1
  6430  8573  8574    1
  6431  8573  8575    1
  6432  8573  8576    1
  6433  8577  8578    1
  6434  8577  8579    1
  6435  8577  8580    1
  6436  8581  8582    1
  6437  8581  8583    1
  6438  8581  8584    1
  6439  8585  8586    1
  6440  8585  8587    1
  6441  8585  8588    1
  6442  8589  8590    1
  6443  8589  8591    1
  6444  8589  8592    1
  6445  8593  8594    1
  6446  8593  8595    1
  6447  8593  8596    1
  6448  8597  8598    1
  6449  8597  8599    1
  6450  8597  8600    1
  6451  8601  8602    1
  6452  8601  8603    1
  6453  8601  8604    1
  6454  8605  8606    1
  6455  8605  8607    1
  6456  8605  8608    1
  6457  8609  8610    1
  6458  8609  8611    1
  6459  8609  8612    1
  6460  8613  8614    1
  6461  8613  8615    1
  6462  8613  8616    1
  6463  8617  8618    1
  6464  8617  8619    1
  6465  8617  8620    1
  6466  8621  8622    1
  6467  8621  8623    1
  6468  8621  8624    1
  6469  8625  8626    1
  6470  8625  8627    1
  6471  8625  8628    1
  6472  8629  8630    1
  6473  8629  8631    1
  6474  8629  8632    1
  6475  8633  8634    1
  6476  8633  8635    1
  6477  8633  8636    1
  6478  8637  8638    1
  6479  8637  8639    1
  6480  8637  8640    1
  6481  8641  8642    1
  6482  8641  8643    1
  6483  8641  8644    1
  6484  8645  8646    1
  6485  8645  8647    1
  6486  8645  8648    1
  6487  8649  8650    1
  6488  8649  8651    1
  6489  8649  8652    1
  6490  8653  8654    1
  6491  8653  8655    1
  6492  8653  8656    1
  6493  8657  8658    1
  6494  8657  8659    1
  6495  8657  8660    1
  6496  8661  8662    1
  6497  8661  8663    1
  6498  8661  8664    1
  6499  8665  8666    1
  6500  8665  8667    1
  6501  8665  8668    1
  6502  8669  8670    1
  6503  8669  8671    1
  6504  8669  8672    1
  6505  8673  8674    1
  6506  8673  8675    1
  6507  8673  8676    1
  6508  8677  8678    1
  6509  8677  8679    1
  6510  8677  8680    1
  6511  8681  8682    1
  6512  8681  8683    1
  6513  8681  8684    1
  6514  8685  8686    1
  6515  8685  8687    1
  6516  8685  8688    1
  6517  8689  8690    1
  6518  8689  8691    1
  6519  8689  8692    1
  6520  8693  8694    1
  6521  8693  8695    1
  6522  8693  8696    1
  6523  8697  8698    1
  6524  8697  8699    1
  6525  8697  8700    1
  6526  8701  8702    1
  6527  8701  8703    1
  6528  8701  8704    1
  6529  8705  8706    1
  6530  8705  8707    1
  6531  8705  8708    1
  6532  8709  8710    1
  6533  8709  8711    1
  6534  8709  8712    1
  6535  8713  8714    1
  6536  8713  8715    1
  6537  8713  8716    1
  6538  8717  8718    1
  6539  8717  8719    1
  6540  8717  8720    1
  6541  8721  8722    1
  6542  8721  8723    1
  6543  8721  8724    1
  6544  8725  8726    1
  6545  8725  8727    1
  6546  8725  8728    1
  6547  8729  8730    1
  6548  8729  8731    1
  6549  8729  8732    1
  6550  8733  8734    1
  6551  8733  8735    1
  6552  8733  8736    1
  6553  8737  8738    1
  6554  8737  8739    1
  6555  8737  8740    1
  6556  8741  8742    1
  6557  8741  8743    1
  6558  8741  8744    1
  6559  8745  8746    1
  6560  8745  8747    1
  6561  8745  8748    1
  6562  8749  8750    1
  6563  8749  8751    1
  6564  8749  8752    1
  6565  8753  8754    1
  6566  8753  8755    1
  6567  8753  8756    1
  6568  8757  8758    1
  6569  8757  8759    1
  6570  8757  8760    1
  6571  8761  8762    1
  6572  8761  8763    1
  6573  8761  8764    1
  6574  8765  8766    1
  6575  8765  8767    1
  6576  8765  8768    1
  6577  8769  8770    1
  6578  8769  8771    1
  6579  8769  8772    1
  6580  8773  8774    1
  6581  8773  8775    1
  6582  8773  8776    1
  6583  8777  8778    1
  6584  8777  8779    1
  6585  8777  8780    1
  6586  8781  8782    1
  6587  8781  8783    1
  6588  8781  8784    1
  6589  8785  8786    1
  6590  8785  8787    1
  6591  8785  8788    1
  6592  8789  8790    1
  6593  8789  8791    1
  6594  8789  8792    1
  6595  8793  8794    1
  6596  8793  8795    1
  6597  8793  8796    1
  6598  8797  8798    1
  6599  8797  8799    1
  6600  8797  8800    1
  6601  8801  8802    1
  6602  8801  8803    1
  6603  8801  8804    1
  6604  8805  8806    1
  6605  8805  8807    1
  6606  8805  8808    1
  6607  8809  8810    1
  6608  8809  8811    1
  6609  8809  8812    1
  6610  8813  8814    1
  6611  8813  8815    1
  6612  8813  8816    1
  6613  8817  8818    1
  6614  8817  8819    1
  6615  8817  8820    1
  6616  8821  8822    1
  6617  8821  8823    1
  6618  8821  8824    1
  6619  8825  8826    1
  6620  8825  8827    1
  6621  8825  8828    1
  6622  8829  8830    1
  6623  8829  8831    1
  6624  8829  8832    1
  6625  8833  8834    1
  6626  8833  8835    1
  6627  8833  8836    1
  6628  8837  8838    1
  6629  8837  8839    1
  6630  8837  8840    1
  6631  8841  8842    1
  6632  8841  8843    1
  6633  8841  8844    1
  6634  8845  8846    1
  6635  8845  8847    1
  6636  8845  8848    1
  6637  8849  8850    1
  6638  8849  8851    1
  6639  8849  8852    1
  6640  8853  8854    1
  6641  8853  8855    1
  6642  8853  8856    1
  6643  8857  8858    1
  6644  8857  8859    1
  6645  8857  8860    1
  6646  8861  8862    1
  6647  8861  8863    1
  6648  8861  8864    1
  6649  8865  8866    1
  6650  8865  8867    1
  6651  8865  8868    1
  6652  8869  8870    1
  6653  8869  8871    1
  6654  8869  8872    1
  6655  8873  8874    1
  6656  8873  8875    1
  6657  8873  8876    1
  6658  8877  8878    1
  6659  8877  8879    1
  6660  8877  8880    1
  6661  8881  8882    1
  6662  8881  8883    1
  6663  8881  8884    1
  6664  8885  8886    1
  6665  8885  8887    1
  6666  8885  8888    1
  6667  8889  8890    1
  6668  8889  8891    1
  6669  8889  8892    1
  6670  8893  8894    1
  6671  8893  8895    1
  6672  8893  8896    1
  6673  8897  8898    1
  6674  8897  8899    1
  6675  8897  8900    1
  6676  8901  8902    1
  6677  8901  8903    1
  6678  8901  8904    1
  6679  8905  8906    1
  6680  8905  8907    1
  6681  8905  8908    1
  6682  8909  8910    1
  6683  8909  8911    1
  6684  8909  8912    1
  6685  8913  8914    1
  6686  8913  8915    1
  6687  8913  8916    1
  6688  8917  8918    1
  6689  8917  8919    1
  6690  8917  8920    1
  6691  8921  8922    1
  6692  8921  8923    1
  6693  8921  8924    1
  6694  8925  8926    1
  6695  8925  8927    1
  6696  8925  8928    1
  6697  8929  8930    1
  6698  8929  8931    1
  6699  8929  8932    1
  6700  8933  8934    1
  6701  8933  8935    1
  6702  8933  8936    1
  6703  8937  8938    1
  6704  8937  8939    1
  6705  8937  8940    1
  6706  8941  8942    1
  6707  8941  8943    1
  6708  8941  8944    1
  6709  8945  8946    1
  6710  8945  8947    1
  6711  8945  8948    1
  6712  8949  8950    1
  6713  8949  8951    1
  6714  8949  8952    1
  6715  8953  8954    1
  6716  8953  8955    1
  6717  8953  8956    1
  6718  8957  8958    1
  6719  8957  8959    1
  6720  8957  8960    1
  6721  8961  8962    1
  6722  8961  8963    1
  6723  8961  8964    1
  6724  8965  8966    1
  6725  8965  8967    1
  6726  8965  8968    1
  6727  8969  8970    1
  6728  8969  8971    1
  6729  8969  8972    1
  6730  8973  8974    1
  6731  8973  8975    1
  6732  8973  8976    1
  6733  8977  8978    1
  6734  8977  8979    1
  6735  8977  8980    1
  6736  8981  8982    1
  6737  8981  8983    1
  6738  8981  8984    1
  6739  8985  8986    1
  6740  8985  8987    1
  6741  8985  8988    1
  6742  8989  8990    1
  6743  8989  8991    1
  6744  8989  8992    1
  6745  8993  8994    1
  6746  8993  8995    1
  6747  8993  8996    1
  6748  8997  8998    1
  6749  8997  8999    1
  6750  8997  9000    1
  6751  9001  9002    1
  6752  9001  9003    1
  6753  9001  9004    1
  6754  9005  9006    1
  6755  9005  9007    1
  6756  9005  9008    1
