@<TRIPOS>MOLECULE
*****
 892 669 0 0 0
SMALL
GASTEIGER

@<TRIPOS>ATOM
      1 N          -0.4510   -0.8473    0.9217 N.3     1  UNL1       -0.3437
      2 H          -1.0877   -0.6306    1.6872 H       1  UNL1        0.1146
      3 H          -0.1332    0.0501    0.5581 H       1  UNL1        0.1146
      4 H           0.3653   -1.2818    1.3497 H       1  UNL1        0.1146
      5 N          -0.2620   -0.2421    4.1812 N.3     2  UNL2       -0.3437
      6 H           0.1968   -0.8032    3.4649 H       2  UNL2        0.1146
      7 H           0.3192    0.5858    4.3045 H       2  UNL2        0.1146
      8 H          -1.1331    0.0856    3.7663 H       2  UNL2        0.1146
      9 N           0.0745   -1.0405    7.9305 N.3     3  UNL3       -0.3437
     10 H          -0.6843   -0.8951    7.2661 H       3  UNL3        0.1146
     11 H           0.4170   -0.1120    8.1734 H       3  UNL3        0.1146
     12 H          -0.3590   -1.4099    8.7755 H       3  UNL3        0.1146
     13 N          -0.0486    0.2161   10.7711 N.3     4  UNL4       -0.3437
     14 H          -0.6792   -0.4282   11.2462 H       4  UNL4        0.1146
     15 H           0.6757   -0.3615   10.3467 H       4  UNL4        0.1146
     16 H          -0.5814    0.6115    9.9977 H       4  UNL4        0.1146
     17 N          -0.3491    3.0100   -1.1534 N.3     5  UNL5       -0.3437
     18 H          -0.9545    3.1954   -0.3550 H       5  UNL5        0.1146
     19 H           0.2218    3.8456   -1.2730 H       5  UNL5        0.1146
     20 H           0.2897    2.2736   -0.8565 H       5  UNL5        0.1146
     21 N          -0.5849    2.0163    1.8346 N.3     6  UNL6       -0.3437
     22 H          -1.0266    2.7052    2.4418 H       6  UNL6        0.1146
     23 H           0.1407    2.5167    1.3233 H       6  UNL6        0.1146
     24 H          -0.0974    1.3689    2.4524 H       6  UNL6        0.1146
     25 N          -0.7878    2.6522    4.8982 N.3     7  UNL7       -0.3437
     26 H          -1.2295    3.3411    5.5054 H       7  UNL7        0.1146
     27 H          -0.0622    3.1527    4.3869 H       7  UNL7        0.1146
     28 H          -0.3003    2.0048    5.5159 H       7  UNL7        0.1146
     29 N          -0.4736    3.1706    8.0481 N.3     8  UNL8       -0.3437
     30 H          -0.9153    3.8595    8.6552 H       8  UNL8        0.1146
     31 H           0.2520    3.6710    7.5367 H       8  UNL8        0.1146
     32 H           0.0139    2.5232    8.6658 H       8  UNL8        0.1146
     33 N          -0.2470    2.9205   11.2395 N.3     9  UNL9       -0.3437
     34 H          -0.8054    3.4815   11.8812 H       9  UNL9        0.1146
     35 H           0.2933    3.5827   10.6846 H       9  UNL9        0.1146
     36 H           0.4281    2.4217   11.8172 H       9  UNL9        0.1146
     37 N           0.0866    5.2905    0.8881 N.3    10  UNL10      -0.3437
     38 H           0.3339    6.0418    1.5305 H      10  UNL10       0.1146
     39 H           0.9589    4.9958    0.4514 H      10  UNL10       0.1146
     40 H          -0.2133    4.5101    1.4707 H      10  UNL10       0.1146
     41 N          -0.0829    5.5970    3.9576 N.3    11  UNL11      -0.3437
     42 H          -0.3050    5.1001    4.8191 H      11  UNL11       0.1146
     43 H           0.2143    6.5299    4.2400 H      11  UNL11       0.1146
     44 H           0.7454    5.1419    3.5765 H      11  UNL11       0.1146
     45 N          -0.2275    6.2586    7.1353 N.3    12  UNL12      -0.3437
     46 H          -0.7730    5.6122    7.7036 H      12  UNL12       0.1146
     47 H           0.2071    6.9089    7.7884 H      12  UNL12       0.1146
     48 H           0.5334    5.7096    6.7376 H      12  UNL12       0.1146
     49 N          -0.0342    5.9514   10.2437 N.3    13  UNL13      -0.3437
     50 H           0.2779    5.5844   11.1416 H      13  UNL13       0.1146
     51 H           0.5306    6.7811   10.0677 H      13  UNL13       0.1146
     52 H           0.2498    5.2652    9.5459 H      13  UNL13       0.1146
     53 N          -0.2460    8.5032    2.2175 N.3    14  UNL14      -0.3437
     54 H           0.3648    8.1654    2.9599 H      14  UNL14       0.1146
     55 H           0.0523    9.4575    2.0208 H      14  UNL14       0.1146
     56 H          -0.0092    7.9586    1.3894 H      14  UNL14       0.1146
     57 N          -0.0010    8.8205    5.3430 N.3    15  UNL15      -0.3437
     58 H          -0.6215    8.2154    4.8070 H      15  UNL15       0.1146
     59 H           0.5832    8.1998    5.9014 H      15  UNL15       0.1146
     60 H           0.6213    9.2565    4.6641 H      15  UNL15       0.1146
     61 N          -0.8892    9.0577    8.4228 N.3    16  UNL16      -0.3437
     62 H          -1.5097    8.4526    7.8868 H      16  UNL16       0.1146
     63 H          -0.3050    8.4370    8.9812 H      16  UNL16       0.1146
     64 H          -0.2668    9.4938    7.7439 H      16  UNL16       0.1146
     65 N          -0.6426    8.6438   11.6464 N.3    17  UNL17      -0.3437
     66 H          -1.0843    7.7844   11.3229 H      17  UNL17       0.1146
     67 H           0.0830    8.3572   12.3019 H      17  UNL17       0.1146
     68 H          -0.1551    9.0302   10.8392 H      17  UNL17       0.1146
     69 N          -0.4928   11.6424    0.8215 N.3    18  UNL18      -0.3437
     70 H          -0.6154   11.3397    1.7867 H      18  UNL18       0.1146
     71 H          -0.1537   10.8273    0.3125 H      18  UNL18       0.1146
     72 H          -1.4289   11.8273    0.4640 H      18  UNL18       0.1146
     73 N          -0.0933   11.6155    4.3152 N.3    19  UNL19      -0.3437
     74 H          -0.5676   12.3393    4.8532 H      19  UNL19       0.1146
     75 H           0.3716   12.0962    3.5463 H      19  UNL19       0.1146
     76 H           0.6501   11.2612    4.9154 H      19  UNL19       0.1146
     77 N          -0.3012   12.1548    7.2216 N.3    20  UNL20      -0.3437
     78 H          -0.7429   12.6620    7.9871 H      20  UNL20       0.1146
     79 H           0.4244   12.7711    6.8581 H      20  UNL20       0.1146
     80 H           0.1863   11.3690    7.6497 H      20  UNL20       0.1146
     81 N          -0.5614   11.3451   10.4285 N.3    21  UNL21      -0.3437
     82 H          -1.0031   12.1074    9.9164 H      21  UNL21       0.1146
     83 H           0.1642   10.9777    9.8146 H      21  UNL21       0.1146
     84 H          -0.0739   11.7783   11.2116 H      21  UNL21       0.1146
     85 N          -0.5301   14.5322    1.2015 N.3    22  UNL22      -0.3437
     86 H          -0.1504   15.2570    1.8087 H      22  UNL22       0.1146
     87 H           0.2640   14.1496    0.6902 H      22  UNL22       0.1146
     88 H          -0.8511   13.7880    1.8193 H      22  UNL22       0.1146
     89 N          -0.1551   14.8934    4.6821 N.3    23  UNL23      -0.3437
     90 H          -0.5968   15.4006    5.4476 H      23  UNL23       0.1146
     91 H           0.5705   15.5096    4.3186 H      23  UNL23       0.1146
     92 H           0.3324   14.1076    5.1102 H      23  UNL23       0.1146
     93 N          -0.2931   15.0956    7.7822 N.3    24  UNL24      -0.3437
     94 H          -0.7348   15.7845    8.3894 H      24  UNL24       0.1146
     95 H           0.4325   15.5961    7.2709 H      24  UNL24       0.1146
     96 H           0.1944   14.4483    8.4000 H      24  UNL24       0.1146
     97 N          -0.4723   14.6071   10.8819 N.3    25  UNL25      -0.3437
     98 H          -0.7413   15.1051   11.7292 H      25  UNL25       0.1146
     99 H           0.0957   15.2583   10.3417 H      25  UNL25       0.1146
    100 H           0.1589   13.8650   11.1806 H      25  UNL25       0.1146
    101 N          -0.1120   17.7624    1.6961 N.3    26  UNL26      -0.3437
    102 H           0.4636   17.1116    1.1637 H      26  UNL26       0.1146
    103 H          -0.0949   18.6403    1.1789 H      26  UNL26       0.1146
    104 H          -1.0672   17.4142    1.6267 H      26  UNL26       0.1146
    105 N          -0.3871   17.9258    4.9636 N.3    27  UNL27      -0.3437
    106 H          -1.1680   17.3020    4.7645 H      27  UNL27       0.1146
    107 H           0.2819   17.3757    5.5004 H      27  UNL27       0.1146
    108 H           0.0587   18.1128    4.0666 H      27  UNL27       0.1146
    109 N          -0.3565   18.1977    7.7668 N.3    28  UNL28      -0.3437
    110 H          -0.7982   18.8866    8.3740 H      28  UNL28       0.1146
    111 H           0.3691   18.6981    7.2555 H      28  UNL28       0.1146
    112 H           0.1310   17.5503    8.3845 H      28  UNL28       0.1146
    113 N          -0.1839   17.8124   10.9788 N.3    29  UNL29      -0.3437
    114 H          -0.4113   18.5243   11.6715 H      29  UNL29       0.1146
    115 H           0.4221   18.2670   10.2973 H      29  UNL29       0.1146
    116 H           0.3981   17.1282   11.4599 H      29  UNL29       0.1146
    117 N          -0.3715   21.0659   -0.3135 N.3    30  UNL30      -0.3437
    118 H          -0.8132   20.4854   -1.0250 H      30  UNL30       0.1146
    119 H           0.3541   20.4887    0.1093 H      30  UNL30       0.1146
    120 H           0.1160   21.8054   -0.8173 H      30  UNL30       0.1146
    121 N           0.0908   21.3384    2.5089 N.3    31  UNL31      -0.3437
    122 H          -0.1963   20.4539    2.0922 H      31  UNL31       0.1146
    123 H           0.6461   21.0959    3.3281 H      31  UNL31       0.1146
    124 H           0.7381   21.7638    1.8468 H      31  UNL31       0.1146
    125 N          -0.9806   20.9317    5.4178 N.3    32  UNL32      -0.3437
    126 H          -1.4223   20.3512    4.7063 H      32  UNL32       0.1146
    127 H          -0.2550   20.3545    5.8406 H      32  UNL32       0.1146
    128 H          -0.4931   21.6713    4.9140 H      32  UNL32       0.1146
    129 N          -0.7531   21.4581    8.3282 N.3    33  UNL33      -0.3437
    130 H          -1.1948   20.7125    7.7923 H      33  UNL33       0.1146
    131 H          -0.0275   21.0108    8.8866 H      33  UNL33       0.1146
    132 H          -0.2656   22.0411    7.6494 H      33  UNL33       0.1146
    133 N          -0.9101   21.1319   11.3265 N.3    34  UNL34      -0.3437
    134 H          -1.3518   20.5806   10.5921 H      34  UNL34       0.1146
    135 H          -0.1845   20.5381   11.7256 H      34  UNL34       0.1146
    136 H          -0.4226   21.8912   10.8530 H      34  UNL34       0.1146
    137 N          -0.9531   23.8850    0.1291 N.3    35  UNL35      -0.3437
    138 H          -1.3948   24.5739    0.7363 H      35  UNL35       0.1146
    139 H          -0.2275   24.3854   -0.3823 H      35  UNL35       0.1146
    140 H          -0.4656   23.2376    0.7468 H      35  UNL35       0.1146
    141 N          -0.7020   24.2109    3.1440 N.3    36  UNL36      -0.3437
    142 H          -0.6767   25.0993    3.6424 H      36  UNL36       0.1146
    143 H          -0.0324   24.2977    2.3808 H      36  UNL36       0.1146
    144 H          -0.3117   23.5194    3.7827 H      36  UNL36       0.1146
    145 N          -0.8834   25.2638    6.2215 N.3    37  UNL37      -0.3437
    146 H          -0.0841   25.3035    6.8523 H      37  UNL37       0.1146
    147 H          -0.7327   25.9976    5.5306 H      37  UNL37       0.1146
    148 H          -0.7999   24.3822    5.7174 H      37  UNL37       0.1146
    149 N          -0.0133   24.2026    9.2617 N.3    38  UNL38      -0.3437
    150 H          -0.6211   24.0209    8.4642 H      38  UNL38       0.1146
    151 H           0.5588   23.3670    9.3749 H      38  UNL38       0.1146
    152 H           0.6237   24.9412    8.9668 H      38  UNL38       0.1146
    153 N          -0.4176   26.2294   11.1602 N.3    39  UNL39      -0.3437
    154 H          -0.7690   26.6600   12.0143 H      39  UNL39       0.1146
    155 H           0.0073   26.9821   10.6205 H      39  UNL39       0.1146
    156 H           0.3489   25.6221   11.4467 H      39  UNL39       0.1146
    157 N           0.1889   29.6687    0.9237 N.3    40  UNL40      -0.3437
    158 H          -0.5553   30.1636    1.4134 H      40  UNL40       0.1146
    159 H           0.4712   30.2754    0.1551 H      40  UNL40       0.1146
    160 H           0.9794   29.6433    1.5662 H      40  UNL40       0.1146
    161 N           0.0495   30.5283    4.4035 N.3    41  UNL41      -0.3437
    162 H           0.7270   31.2469    4.6547 H      41  UNL41       0.1146
    163 H           0.2785   30.2469    3.4513 H      41  UNL41       0.1146
    164 H           0.2615   29.7243    4.9926 H      41  UNL41       0.1146
    165 N          -0.7572   30.3835    7.5365 N.3    42  UNL42      -0.3437
    166 H          -0.1543   30.8815    8.1899 H      42  UNL42       0.1146
    167 H          -0.9453   31.0346    6.7756 H      42  UNL42       0.1146
    168 H          -0.1851   29.6414    7.1361 H      42  UNL42       0.1146
    169 N          -0.8567   29.4993   10.9200 N.3    43  UNL43      -0.3437
    170 H          -1.2984   30.1882   11.5272 H      43  UNL43       0.1146
    171 H          -0.1311   29.9998   10.4086 H      43  UNL43       0.1146
    172 H          -0.3692   28.8519   11.5377 H      43  UNL43       0.1146
    173 N          -0.0237   32.9367   -0.2648 N.3    44  UNL44      -0.3437
    174 H          -0.6969   33.7016   -0.2721 H      44  UNL44       0.1146
    175 H           0.1303   32.7074    0.7160 H      44  UNL44       0.1146
    176 H          -0.5055   32.1346   -0.6684 H      44  UNL44       0.1146
    177 N          -0.4973   33.3436    5.5856 N.3    45  UNL45      -0.3437
    178 H          -0.9390   32.6202    5.0199 H      45  UNL45       0.1146
    179 H           0.2283   32.8740    6.1254 H      45  UNL45       0.1146
    180 H          -0.0098   33.9536    4.9308 H      45  UNL45       0.1146
    181 N          -0.6860   33.4214    8.7285 N.3    46  UNL46      -0.3437
    182 H          -1.1277   32.8409    8.0170 H      46  UNL46       0.1146
    183 H           0.0396   32.8442    9.1513 H      46  UNL46       0.1146
    184 H          -0.1985   34.1609    8.2247 H      46  UNL46       0.1146
    185 N          -0.7832   32.9990   11.6955 N.3    47  UNL47      -0.3437
    186 H          -1.2249   32.4477   10.9611 H      47  UNL47       0.1146
    187 H          -0.0576   32.4052   12.0946 H      47  UNL47       0.1146
    188 H          -0.2957   33.7583   11.2220 H      47  UNL47       0.1146
    189 N           2.3687    0.3672    0.4982 N.3    48  UNL48      -0.3437
    190 H           3.2171    0.8165    0.8398 H      48  UNL48       0.1146
    191 H           2.1333    0.8379   -0.3744 H      48  UNL48       0.1146
    192 H           2.6371   -0.5818    0.2419 H      48  UNL48       0.1146
    193 N           2.6423    0.2070    3.4705 N.3    49  UNL49      -0.3437
    194 H           3.4910    0.7366    3.6642 H      49  UNL49       0.1146
    195 H           2.0988    0.7748    2.8219 H      49  UNL49       0.1146
    196 H           2.9377   -0.6145    2.9450 H      49  UNL49       0.1146
    197 N           2.1998   -0.5313    6.1003 N.3    50  UNL50      -0.3437
    198 H           1.9799   -1.4086    6.5697 H      50  UNL50       0.1146
    199 H           2.1901    0.1851    6.8250 H      50  UNL50       0.1146
    200 H           3.1692   -0.6104    5.7967 H      50  UNL50       0.1146
    201 N           2.7946   -0.7940    9.3968 N.3    51  UNL51      -0.3437
    202 H           3.7311   -0.8295    9.7968 H      51  UNL51       0.1146
    203 H           2.5381    0.1919    9.3693 H      51  UNL51       0.1146
    204 H           2.8928   -1.0858    8.4255 H      51  UNL51       0.1146
    205 N           2.4880    0.1616   12.6539 N.3    52  UNL52      -0.3437
    206 H           2.2829   -0.4314   11.8511 H      52  UNL52       0.1146
    207 H           3.4282    0.5241   12.5025 H      52  UNL52       0.1146
    208 H           1.8627    0.9627   12.5785 H      52  UNL52       0.1146
    209 N           2.2866    3.1798    1.7269 N.3    53  UNL53      -0.3437
    210 H           1.6812    3.5665    2.4496 H      53  UNL53       0.1146
    211 H           2.8575    3.9555    1.3940 H      53  UNL53       0.1146
    212 H           2.9254    2.5460    2.2052 H      53  UNL53       0.1146
    213 N           2.1836    2.5706    4.8241 N.3    54  UNL54      -0.3437
    214 H           1.7085    3.2213    5.4480 H      54  UNL54       0.1146
    215 H           2.8426    3.1297    4.2841 H      54  UNL54       0.1146
    216 H           2.7491    1.9700    5.4224 H      54  UNL54       0.1146
    217 N           2.5423    2.5469    7.7003 N.3    55  UNL55      -0.3437
    218 H           2.1006    3.0541    8.4658 H      55  UNL55       0.1146
    219 H           3.2679    3.1631    7.3368 H      55  UNL55       0.1146
    220 H           3.0298    1.7611    8.1284 H      55  UNL55       0.1146
    221 N           2.7771    2.8377   10.7398 N.3    56  UNL56      -0.3437
    222 H           2.3354    3.5266   11.3470 H      56  UNL56       0.1146
    223 H           3.5027    3.3382   10.2285 H      56  UNL56       0.1146
    224 H           3.2646    2.1903   11.3576 H      56  UNL56       0.1146
    225 N           2.8980    6.7734    1.9188 N.3    57  UNL57      -0.3437
    226 H           3.6356    6.2647    1.4335 H      57  UNL57       0.1146
    227 H           2.2511    6.0667    2.2659 H      57  UNL57       0.1146
    228 H           3.3350    7.1832    2.7431 H      57  UNL57       0.1146
    229 N           2.9702    5.7799    5.0496 N.3    58  UNL58      -0.3437
    230 H           2.3241    5.3198    5.6893 H      58  UNL58       0.1146
    231 H           3.3277    5.0482    4.4370 H      58  UNL58       0.1146
    232 H           2.3994    6.3849    4.4609 H      58  UNL58       0.1146
    233 N           2.7900    5.8113    8.1809 N.3    59  UNL59      -0.3437
    234 H           2.1594    5.0656    8.4720 H      59  UNL59       0.1146
    235 H           3.5143    5.3639    7.6209 H      59  UNL59       0.1146
    236 H           2.2572    6.3943    7.5370 H      59  UNL59       0.1146
    237 N           2.6650    5.9492   11.5744 N.3    60  UNL60      -0.3437
    238 H           2.6035    5.5814   10.6261 H      60  UNL60       0.1146
    239 H           3.3451    5.3649   12.0587 H      60  UNL60       0.1146
    240 H           3.0942    6.8696   11.4914 H      60  UNL60       0.1146
    241 N           2.2405    9.4472   -0.8619 N.3    61  UNL61      -0.3437
    242 H           1.6820   10.0083   -0.2203 H      61  UNL61       0.1146
    243 H           2.7808   10.1095   -1.4168 H      61  UNL61       0.1146
    244 H           2.9156    8.9484   -0.2842 H      61  UNL61       0.1146
    245 N           2.5723    9.8057    2.1675 N.3    62  UNL62      -0.3437
    246 H           2.1771    9.0111    1.6667 H      62  UNL62       0.1146
    247 H           3.2524    9.4169    2.8192 H      62  UNL62       0.1146
    248 H           3.1106   10.3314    1.4803 H      62  UNL62       0.1146
    249 N           2.9708    9.2171    5.3147 N.3    63  UNL63      -0.3437
    250 H           2.5111    8.3962    4.9235 H      63  UNL63       0.1146
    251 H           3.3889    8.9132    6.1929 H      63  UNL63       0.1146
    252 H           3.7489    9.4272    4.6912 H      63  UNL63       0.1146
    253 N           2.2073    8.9572    8.4040 N.3    64  UNL64      -0.3437
    254 H           1.6112    8.5150    7.7058 H      64  UNL64       0.1146
    255 H           2.8384    8.2294    8.7361 H      64  UNL64       0.1146
    256 H           2.7885    9.6226    7.8963 H      64  UNL64       0.1146
    257 N           2.2380    9.2242   11.2653 N.3    65  UNL65      -0.3437
    258 H           1.9481    8.3216   10.8918 H      65  UNL65       0.1146
    259 H           2.7629    9.0211   12.1148 H      65  UNL65       0.1146
    260 H           2.9135    9.5993   10.6009 H      65  UNL65       0.1146
    261 N           2.0808   12.4062    1.7924 N.3    66  UNL66      -0.3437
    262 H           1.8149   13.3856    1.7006 H      66  UNL66       0.1146
    263 H           2.0202   12.0097    0.8557 H      66  UNL66       0.1146
    264 H           3.0707   12.4054    2.0341 H      66  UNL66       0.1146
    265 N           2.7535   12.4791    4.8175 N.3    67  UNL67      -0.3437
    266 H           2.4489   13.1625    4.1257 H      67  UNL67       0.1146
    267 H           2.9104   11.6121    4.3056 H      67  UNL67       0.1146
    268 H           3.6715   12.7889    5.1331 H      67  UNL67       0.1146
    269 N           2.4384   12.2663    7.9606 N.3    68  UNL68      -0.3437
    270 H           1.8327   12.6396    8.6900 H      68  UNL68       0.1146
    271 H           3.0088   13.0482    7.6417 H      68  UNL68       0.1146
    272 H           3.0775   11.6245    8.4275 H      68  UNL68       0.1146
    273 N           2.3342   12.0992   11.0340 N.3    69  UNL69      -0.3437
    274 H           1.8925   12.7881   11.6412 H      69  UNL69       0.1146
    275 H           3.0598   12.5996   10.5226 H      69  UNL69       0.1146
    276 H           2.8217   11.4518   11.6517 H      69  UNL69       0.1146
    277 N           1.9692   15.4302   -0.8843 N.3    70  UNL70      -0.3437
    278 H           1.5275   16.1191   -0.2772 H      70  UNL70       0.1146
    279 H           2.6948   15.9307   -1.3957 H      70  UNL70       0.1146
    280 H           2.4567   14.7829   -0.2666 H      70  UNL70       0.1146
    281 N           2.2301   15.5475    2.1030 N.3    71  UNL71      -0.3437
    282 H           1.6580   16.1196    2.7224 H      71  UNL71       0.1146
    283 H           2.7604   16.2004    1.5277 H      71  UNL71       0.1146
    284 H           2.9117   15.0820    2.7005 H      71  UNL71       0.1146
    285 N           2.7055   15.2628    5.2027 N.3    72  UNL72      -0.3437
    286 H           2.3019   15.9641    5.8221 H      72  UNL72       0.1146
    287 H           3.3874   15.7553    4.6275 H      72  UNL72       0.1146
    288 H           3.2426   14.6360    5.8002 H      72  UNL72       0.1146
    289 N           2.6259   15.4691    8.0876 N.3    73  UNL73      -0.3437
    290 H           2.1842   16.1580    8.6948 H      73  UNL73       0.1146
    291 H           3.3515   15.9696    7.5762 H      73  UNL73       0.1146
    292 H           3.1134   14.8217    8.7053 H      73  UNL73       0.1146
    293 N           2.4580   14.9992   11.1021 N.3    74  UNL74      -0.3437
    294 H           1.8523   15.5494   11.7093 H      74  UNL74       0.1146
    295 H           3.0284   15.6712   10.5907 H      74  UNL74       0.1146
    296 H           3.0971   14.5009   11.7198 H      74  UNL74       0.1146
    297 N           2.6386   18.5933   -0.4494 N.3    75  UNL75      -0.3437
    298 H           3.5017   19.0972   -0.2504 H      75  UNL75       0.1146
    299 H           2.5948   18.5008   -1.4632 H      75  UNL75       0.1146
    300 H           2.7738   17.6506   -0.0870 H      75  UNL75       0.1146
    301 N           2.6563   18.9722    2.3428 N.3    76  UNL76      -0.3437
    302 H           2.3226   18.0520    2.0598 H      76  UNL76       0.1146
    303 H           1.9054   19.3862    2.8934 H      76  UNL76       0.1146
    304 H           3.4225   18.8053    2.9935 H      76  UNL76       0.1146
    305 N           2.6676   18.3291    5.4062 N.3    77  UNL77      -0.3437
    306 H           2.2259   17.7778    4.6718 H      77  UNL77       0.1146
    307 H           3.3932   17.7353    5.8053 H      77  UNL77       0.1146
    308 H           3.1551   19.0884    4.9327 H      77  UNL77       0.1146
    309 N           2.3883   18.9647    8.2064 N.3    78  UNL78      -0.3437
    310 H           1.9466   19.4719    8.9719 H      78  UNL78       0.1146
    311 H           3.1139   19.5810    7.8429 H      78  UNL78       0.1146
    312 H           2.8758   18.1789    8.6344 H      78  UNL78       0.1146
    313 N           2.7130   18.2235   11.1817 N.3    79  UNL79      -0.3437
    314 H           2.4440   18.7216   12.0290 H      79  UNL79       0.1146
    315 H           3.2810   18.8747   10.6415 H      79  UNL79       0.1146
    316 H           3.3442   17.4814   11.4804 H      79  UNL79       0.1146
    317 N           3.0213   21.6701   -0.6435 N.3    80  UNL80      -0.3437
    318 H           2.1989   21.1565   -0.9567 H      80  UNL80       0.1146
    319 H           3.4948   21.0623    0.0235 H      80  UNL80       0.1146
    320 H           3.6378   21.7335   -1.4523 H      80  UNL80       0.1146
    321 N           3.1559   21.6636    2.9255 N.3    81  UNL81      -0.3437
    322 H           3.1635   21.3116    1.9693 H      81  UNL81       0.1146
    323 H           3.6153   20.9509    3.4908 H      81  UNL81       0.1146
    324 H           3.7772   22.4712    2.9325 H      81  UNL81       0.1146
    325 N           2.1015   21.2970    5.5552 N.3    82  UNL82      -0.3437
    326 H           1.6598   20.7165    4.8437 H      82  UNL82       0.1146
    327 H           2.8271   20.7198    5.9780 H      82  UNL82       0.1146
    328 H           2.5890   22.0366    5.0514 H      82  UNL82       0.1146
    329 N           2.3163   22.0168    8.2317 N.3    83  UNL83      -0.3437
    330 H           1.6958   21.4117    7.6958 H      83  UNL83       0.1146
    331 H           2.9005   21.3961    8.7901 H      83  UNL83       0.1146
    332 H           2.9387   22.4529    7.5529 H      83  UNL83       0.1146
    333 N           2.1455   21.4497   11.1406 N.3    84  UNL84      -0.3437
    334 H           1.5756   21.0323   10.4062 H      84  UNL84       0.1146
    335 H           2.6916   20.6876   11.5397 H      84  UNL84       0.1146
    336 H           2.8137   22.0560   10.6671 H      84  UNL84       0.1146
    337 N           1.9843   23.7055    0.7325 N.3    85  UNL85      -0.3437
    338 H           1.5895   24.5072    1.2221 H      85  UNL85       0.1146
    339 H           2.5332   24.0882   -0.0361 H      85  UNL85       0.1146
    340 H           2.6550   23.2864    1.3750 H      85  UNL85       0.1146
    341 N           2.1939   24.3610    3.5937 N.3    86  UNL86      -0.3437
    342 H           1.5885   24.9224    4.1909 H      86  UNL86       0.1146
    343 H           2.7648   25.0234    3.0705 H      86  UNL86       0.1146
    344 H           2.8327   23.8735    4.2203 H      86  UNL86       0.1146
    345 N           2.3914   25.1691    6.4421 N.3    87  UNL87      -0.3437
    346 H           2.4528   26.0606    6.9318 H      87  UNL87       0.1146
    347 H           3.0582   25.2243    5.6735 H      87  UNL87       0.1146
    348 H           2.7608   24.4697    7.0846 H      87  UNL87       0.1146
    349 N           3.1120   24.1890    9.4293 N.3    88  UNL88      -0.3437
    350 H           2.8430   24.6870   10.2767 H      88  UNL88       0.1146
    351 H           3.6800   24.8402    8.8891 H      88  UNL88       0.1146
    352 H           3.7432   23.4469    9.7281 H      88  UNL88       0.1146
    353 N           2.7927   24.1961   12.6453 N.3    89  UNL89      -0.3437
    354 H           2.5971   23.9390   13.6117 H      89  UNL89       0.1146
    355 H           3.2818   25.0891   12.6856 H      89  UNL89       0.1146
    356 H           3.4737   23.5180   12.3065 H      89  UNL89       0.1146
    357 N           1.4219   27.0441   -0.3782 N.3    90  UNL90      -0.3437
    358 H           2.2152   27.3629    0.1762 H      90  UNL90       0.1146
    359 H           1.6740   27.2115   -1.3513 H      90  UNL90       0.1146
    360 H           1.3900   26.0317   -0.2666 H      90  UNL90       0.1146
    361 N           0.8748   26.9801    2.3247 N.3    91  UNL91      -0.3437
    362 H           0.5443   26.6189    3.2184 H      91  UNL91       0.1146
    363 H           1.4075   27.8213    2.5415 H      91  UNL91       0.1146
    364 H           1.5513   26.3004    1.9799 H      91  UNL91       0.1146
    365 N           1.7669   27.6601    5.1406 N.3    92  UNL92      -0.3437
    366 H           2.4204   27.8827    5.8902 H      92  UNL92       0.1146
    367 H           2.3069   27.1585    4.4370 H      92  UNL92       0.1146
    368 H           1.1137   26.9817    5.5297 H      92  UNL92       0.1146
    369 N           1.2951   27.3647    8.3663 N.3    93  UNL93      -0.3437
    370 H           0.8534   28.0536    8.9735 H      93  UNL93       0.1146
    371 H           2.0207   27.8652    7.8549 H      93  UNL93       0.1146
    372 H           1.7826   26.7174    8.9840 H      93  UNL93       0.1146
    373 N           2.4076   27.4337   11.1109 N.3    94  UNL94      -0.3437
    374 H           1.9659   27.4876   12.0276 H      94  UNL94       0.1146
    375 H           3.1332   28.1491   11.1061 H      94  UNL94       0.1146
    376 H           2.8951   26.5392   11.0862 H      94  UNL94       0.1146
    377 N           2.5743   31.5589    0.3579 N.3    95  UNL95      -0.3437
    378 H           2.0903   32.0898    1.0806 H      95  UNL95       0.1146
    379 H           3.3273   32.1593    0.0250 H      95  UNL95       0.1146
    380 H           3.0262   30.7808    0.8361 H      95  UNL95       0.1146
    381 N           2.8734   29.7138    3.2621 N.3    96  UNL96      -0.3437
    382 H           2.4317   30.5369    3.6691 H      96  UNL96       0.1146
    383 H           3.5990   30.0640    2.6382 H      96  UNL96       0.1146
    384 H           3.3609   29.2494    4.0270 H      96  UNL96       0.1146
    385 N           2.6230   30.3451    6.1317 N.3    97  UNL97      -0.3437
    386 H           2.2233   31.0570    6.7414 H      97  UNL97       0.1146
    387 H           3.3855   30.7997    5.6313 H      97  UNL97       0.1146
    388 H           3.0599   29.6609    6.7476 H      97  UNL97       0.1146
    389 N           2.2169   30.1293    9.1922 N.3    98  UNL98      -0.3437
    390 H           3.0908   30.4688    8.7931 H      98  UNL98       0.1146
    391 H           1.7732   30.9379    9.6255 H      98  UNL98       0.1146
    392 H           1.6267   29.8755    8.4013 H      98  UNL98       0.1146
    393 N           1.8507   29.9862   12.2558 N.3    99  UNL99      -0.3437
    394 H           1.4905   29.4087   13.0143 H      99  UNL99       0.1146
    395 H           1.2223   30.7855   12.1886 H      99  UNL99       0.1146
    396 H           2.7418   30.3563   12.5833 H      99  UNL99       0.1146
    397 N           0.9541   34.0238    2.5962 N.3   100  UNL100     -0.3437
    398 H           1.2786   34.5209    3.4244 H     100  UNL100      0.1146
    399 H           1.5769   34.3023    1.8394 H     100  UNL100      0.1146
    400 H           1.1445   33.0376    2.7680 H     100  UNL100      0.1146
    401 N           2.5848   33.3205    5.1728 N.3   101  UNL101     -0.3437
    402 H           2.2978   32.5748    4.5404 H     101  UNL101      0.1146
    403 H           3.1402   32.8731    5.9007 H     101  UNL101      0.1146
    404 H           3.2322   33.9035    4.6442 H     101  UNL101      0.1146
    405 N           2.3791   33.3622    8.2916 N.3   102  UNL102     -0.3437
    406 H           1.7587   32.9174    7.6167 H     102  UNL102      0.1146
    407 H           2.9634   32.6176    8.6693 H     102  UNL102      0.1146
    408 H           3.0015   33.9599    7.7496 H     102  UNL102      0.1146
    409 N           2.2796   33.1416   11.3120 N.3   103  UNL103     -0.3437
    410 H           1.7097   32.7242   10.5776 H     103  UNL103      0.1146
    411 H           2.8257   32.3794   11.7111 H     103  UNL103      0.1146
    412 H           2.9478   33.7479   10.8385 H     103  UNL103      0.1146
    413 N           6.3077   -0.2729   -0.8640 N.3   104  UNL104     -0.3437
    414 H           5.4028    0.1215   -0.6112 H     104  UNL104      0.1146
    415 H           6.9238    0.5216   -1.0303 H     104  UNL104      0.1146
    416 H           6.6594   -0.7299   -0.0239 H     104  UNL104      0.1146
    417 N           5.2934   -0.2486    1.9933 N.3   105  UNL105     -0.3437
    418 H           4.8517   -0.8291    1.2818 H     105  UNL105      0.1146
    419 H           6.0190   -0.8258    2.4161 H     105  UNL105      0.1146
    420 H           5.7809    0.4909    1.4895 H     105  UNL105      0.1146
    421 N           5.5192   -0.1702    4.9817 N.3   106  UNL106     -0.3437
    422 H           4.8987   -0.7753    4.4457 H     106  UNL106      0.1146
    423 H           6.1034   -0.7909    5.5401 H     106  UNL106      0.1146
    424 H           6.1416    0.2659    4.3029 H     106  UNL106      0.1146
    425 N           5.2722   -0.1887    7.7385 N.3   107  UNL107     -0.3437
    426 H           4.3175    0.1019    7.5325 H     107  UNL107      0.1146
    427 H           5.6409    0.5009    8.3919 H     107  UNL107      0.1146
    428 H           5.1940   -1.0588    8.2630 H     107  UNL107      0.1146
    429 N           5.5617   -0.4588   11.1912 N.3   108  UNL108     -0.3437
    430 H           5.3335    0.3921   10.6791 H     108  UNL108      0.1146
    431 H           6.1667   -1.0024   10.5773 H     108  UNL108      0.1146
    432 H           6.1451   -0.1674   11.9742 H     108  UNL108      0.1146
    433 N           5.3313    3.0840    1.8596 N.3   109  UNL109     -0.3437
    434 H           4.7259    3.6454    2.4568 H     109  UNL109      0.1146
    435 H           5.9022    3.7464    1.3363 H     109  UNL109      0.1146
    436 H           5.9701    2.5965    2.4862 H     109  UNL109      0.1146
    437 N           5.1010    2.8925    4.8650 N.3   110  UNL110     -0.3437
    438 H           4.6593    3.3997    5.6305 H     110  UNL110      0.1146
    439 H           5.8266    3.5088    4.5014 H     110  UNL110      0.1146
    440 H           5.5885    2.1067    5.2930 H     110  UNL110      0.1146
    441 N           5.4492    3.1046    8.0569 N.3   111  UNL111     -0.3437
    442 H           5.0075    3.7935    8.6641 H     111  UNL111      0.1146
    443 H           6.1748    3.6051    7.5456 H     111  UNL111      0.1146
    444 H           5.9367    2.4573    8.6746 H     111  UNL111      0.1146
    445 N           5.7930    2.6480   11.1065 N.3   112  UNL112     -0.3437
    446 H           5.1876    3.0348   11.8292 H     112  UNL112      0.1146
    447 H           6.3639    3.4237   10.7736 H     112  UNL112      0.1146
    448 H           6.4318    2.0143   11.5847 H     112  UNL112      0.1146
    449 N           6.3351    6.0331    0.3375 N.3   113  UNL113     -0.3437
    450 H           6.9384    6.5927   -0.2636 H     113  UNL113      0.1146
    451 H           5.3858    6.3619    0.1671 H     113  UNL113      0.1146
    452 H           6.3740    5.0839   -0.0310 H     113  UNL113      0.1146
    453 N           5.7243    5.8021    3.6160 N.3   114  UNL114     -0.3437
    454 H           5.2826    6.1327    2.7593 H     114  UNL114      0.1146
    455 H           6.4499    5.1489    3.3239 H     114  UNL114      0.1146
    456 H           6.2118    6.6060    4.0090 H     114  UNL114      0.1146
    457 N           5.5771    5.8580    6.6693 N.3   115  UNL115     -0.3437
    458 H           5.7095    4.9914    6.1499 H     115  UNL115      0.1146
    459 H           6.2547    5.8358    7.4301 H     115  UNL115      0.1146
    460 H           5.8779    6.6070    6.0473 H     115  UNL115      0.1146
    461 N           5.1751    5.9812   10.1502 N.3   116  UNL116     -0.3437
    462 H           5.0952    6.3817    9.2165 H     116  UNL116      0.1146
    463 H           5.7513    5.1468   10.0495 H     116  UNL116      0.1146
    464 H           5.7298    6.6418   10.6926 H     116  UNL116      0.1146
    465 N           5.5729    6.1079   13.2833 N.3   117  UNL117     -0.3437
    466 H           5.6424    5.3623   12.5923 H     117  UNL117      0.1146
    467 H           5.6874    5.6606   14.1917 H     117  UNL117      0.1146
    468 H           6.3982    6.6909   13.1514 H     117  UNL117      0.1146
    469 N           5.5418    8.7054    2.0699 N.3   118  UNL118     -0.3437
    470 H           4.9882    8.0054    1.5780 H     118  UNL118      0.1146
    471 H           5.9908    8.2161    2.8428 H     118  UNL118      0.1146
    472 H           6.2910    8.9700    1.4320 H     118  UNL118      0.1146
    473 N           5.9078    8.9729    5.4387 N.3   119  UNL119     -0.3437
    474 H           5.4661    8.2273    4.9028 H     119  UNL119      0.1146
    475 H           6.6334    8.5256    5.9971 H     119  UNL119      0.1146
    476 H           6.3953    9.5559    4.7599 H     119  UNL119      0.1146
    477 N           5.2979    8.6710    8.3273 N.3   120  UNL120     -0.3437
    478 H           4.8562    8.0905    7.6158 H     120  UNL120      0.1146
    479 H           6.0235    8.0938    8.7501 H     120  UNL120      0.1146
    480 H           5.7854    9.4105    7.8235 H     120  UNL120      0.1146
    481 N           5.3630    8.9454   11.6031 N.3   121  UNL121     -0.3437
    482 H           4.6420    8.3368   11.2183 H     121  UNL121      0.1146
    483 H           6.1051    8.3290   11.9314 H     121  UNL121      0.1146
    484 H           5.7516    9.4558   10.8114 H     121  UNL121      0.1146
    485 N           5.4998   11.5951    1.1450 N.3   122  UNL122     -0.3437
    486 H           4.9834   12.2347    0.5428 H     122  UNL122      0.1146
    487 H           5.7131   10.7801    0.5716 H     122  UNL122      0.1146
    488 H           6.3933   12.0470    1.3340 H     122  UNL122      0.1146
    489 N           5.5556   11.7425    4.0817 N.3   123  UNL123     -0.3437
    490 H           5.9684   11.6346    5.0071 H     123  UNL123      0.1146
    491 H           6.3179   11.6150    3.4175 H     123  UNL123      0.1146
    492 H           4.9365   10.9431    3.9554 H     123  UNL123      0.1146
    493 N           5.4223   11.9580    7.5408 N.3   124  UNL124     -0.3437
    494 H           4.9567   12.7074    8.0506 H     124  UNL124      0.1146
    495 H           6.2870   12.3588    7.1800 H     124  UNL124      0.1146
    496 H           5.7013   11.2728    8.2415 H     124  UNL124      0.1146
    497 N           5.4090   12.0918   10.6370 N.3   125  UNL125     -0.3437
    498 H           4.9673   12.7807   11.2442 H     125  UNL125      0.1146
    499 H           6.1346   12.5923   10.1257 H     125  UNL125      0.1146
    500 H           5.8965   11.4445   11.2548 H     125  UNL125      0.1146
    501 N           5.1977   11.7978   13.7553 N.3   126  UNL126     -0.3437
    502 H           4.6393   12.3589   14.3970 H     126  UNL126      0.1146
    503 H           5.7380   12.4601   13.2004 H     126  UNL126      0.1146
    504 H           5.8729   11.2991   14.3330 H     126  UNL126      0.1146
    505 N           5.3440   14.3454    1.8215 N.3   127  UNL127     -0.3437
    506 H           4.7856   14.9065    2.4631 H     127  UNL127      0.1146
    507 H           5.8843   15.0077    1.2666 H     127  UNL127      0.1146
    508 H           6.0192   13.8466    2.3992 H     127  UNL127      0.1146
    509 N           5.7366   14.4888    4.9537 N.3   128  UNL128     -0.3437
    510 H           5.2949   15.1777    5.5609 H     128  UNL128      0.1146
    511 H           6.4622   14.9893    4.4424 H     128  UNL128      0.1146
    512 H           6.2241   13.8415    5.5714 H     128  UNL128      0.1146
    513 N           5.7196   14.8630    8.0072 N.3   129  UNL129     -0.3437
    514 H           5.1139   15.4133    8.6144 H     129  UNL129      0.1146
    515 H           6.2900   15.5350    7.4958 H     129  UNL129      0.1146
    516 H           6.3587   14.3647    8.6249 H     129  UNL129      0.1146
    517 N           5.4926   15.1596   10.9998 N.3   130  UNL130     -0.3437
    518 H           4.9250   15.8613   11.4728 H     130  UNL130      0.1146
    519 H           6.2276   15.6728   10.5153 H     130  UNL130      0.1146
    520 H           5.9579   14.6314   11.7366 H     130  UNL130      0.1146
    521 N           4.8969   17.4348    1.3359 N.3   131  UNL131     -0.3437
    522 H           4.6643   16.7681    0.6012 H     131  UNL131      0.1146
    523 H           5.7138   17.0547    1.8118 H     131  UNL131      0.1146
    524 H           5.2159   18.2774    0.8599 H     131  UNL131      0.1146
    525 N           5.4875   17.5976    4.4830 N.3   132  UNL132     -0.3437
    526 H           4.9216   16.8520    4.0805 H     132  UNL132      0.1146
    527 H           6.3334   17.1503    4.8335 H     132  UNL132      0.1146
    528 H           5.7817   18.1806    3.7008 H     132  UNL132      0.1146
    529 N           5.2452   18.0480    7.5903 N.3   133  UNL133     -0.3437
    530 H           4.9767   18.7369    8.2915 H     133  UNL133      0.1146
    531 H           5.8128   18.5484    6.9078 H     133  UNL133      0.1146
    532 H           5.8767   17.4006    8.0599 H     133  UNL133      0.1146
    533 N           5.8237   18.1320   10.6156 N.3   134  UNL134     -0.3437
    534 H           5.2183   18.6934   11.2128 H     134  UNL134      0.1146
    535 H           6.3946   18.7944   10.0924 H     134  UNL134      0.1146
    536 H           6.4625   17.6445   11.2422 H     134  UNL134      0.1146
    537 N           5.4507   18.2114   13.6692 N.3   135  UNL135     -0.3437
    538 H           5.1636   17.4657   13.0367 H     135  UNL135      0.1146
    539 H           6.0060   17.7640   14.3971 H     135  UNL135      0.1146
    540 H           6.0980   18.7944   13.1405 H     135  UNL135      0.1146
    541 N           5.9734   20.6564   -0.5157 N.3   136  UNL136     -0.3437
    542 H           5.5317   19.7425   -0.6045 H     136  UNL136      0.1146
    543 H           6.6990   20.5502    0.1918 H     136  UNL136      0.1146
    544 H           6.4609   20.8195   -1.3956 H     136  UNL136      0.1146
    545 N           5.8356   20.6279    2.6606 N.3   137  UNL137     -0.3437
    546 H           5.3939   19.8822    2.1247 H     137  UNL137      0.1146
    547 H           6.5612   20.1806    3.2190 H     137  UNL137      0.1146
    548 H           6.3231   21.2109    1.9818 H     137  UNL137      0.1146
    549 N           5.3369   20.9201    5.4770 N.3   138  UNL138     -0.3437
    550 H           5.0499   20.1744    4.8446 H     138  UNL138      0.1146
    551 H           5.8923   20.4727    6.2049 H     138  UNL138      0.1146
    552 H           5.9843   21.5030    4.9484 H     138  UNL138      0.1146
    553 N           5.2596   21.2627    8.6904 N.3   139  UNL139     -0.3437
    554 H           4.8179   20.8872    7.8523 H     139  UNL139      0.1146
    555 H           5.9852   20.5953    8.9484 H     139  UNL139      0.1146
    556 H           5.7471   22.1078    8.3963 H     139  UNL139      0.1146
    557 N           5.3192   21.2364   11.9057 N.3   140  UNL140     -0.3437
    558 H           4.8775   21.3696   10.9971 H     140  UNL140      0.1146
    559 H           6.0448   20.5348   11.7651 H     140  UNL140      0.1146
    560 H           5.8067   22.1072   12.1114 H     140  UNL140      0.1146
    561 N           5.0817   23.6040    0.6321 N.3   141  UNL141     -0.3437
    562 H           4.6400   24.1112    1.3976 H     141  UNL141      0.1146
    563 H           5.8073   24.2202    0.2686 H     141  UNL141      0.1146
    564 H           5.5692   22.8182    1.0602 H     141  UNL141      0.1146
    565 N           6.0002   23.8464    3.5795 N.3   142  UNL142     -0.3437
    566 H           5.3948   24.2331    4.3021 H     142  UNL142      0.1146
    567 H           6.5711   24.6221    3.2466 H     142  UNL142      0.1146
    568 H           6.6390   23.2127    4.0577 H     142  UNL142      0.1146
    569 N           5.1638   24.0159    6.6828 N.3   143  UNL143     -0.3437
    570 H           4.8278   23.5763    7.5385 H     143  UNL143      0.1146
    571 H           5.7043   24.8280    6.9777 H     143  UNL143      0.1146
    572 H           5.8343   23.3647    6.2770 H     143  UNL143      0.1146
    573 N           5.5461   24.6176   11.1580 N.3   144  UNL144     -0.3437
    574 H           6.3848   25.0482   11.5447 H     144  UNL144      0.1146
    575 H           5.2806   25.1892   10.3572 H     144  UNL144      0.1146
    576 H           5.8416   23.7200   10.7766 H     144  UNL144      0.1146
    577 N           3.9994   26.8499    2.0650 N.3   145  UNL145     -0.3437
    578 H           3.6688   27.4474    2.8213 H     145  UNL145      0.1146
    579 H           4.5321   27.4548    1.4415 H     145  UNL145      0.1146
    580 H           4.6758   26.2138    2.4847 H     145  UNL145      0.1146
    581 N           5.1708   26.5731    5.0358 N.3   146  UNL146     -0.3437
    582 H           4.7291   27.4418    4.7380 H     146  UNL146      0.1146
    583 H           5.8964   26.3767    4.3478 H     146  UNL146      0.1146
    584 H           5.6583   26.7892    5.9042 H     146  UNL146      0.1146
    585 N           4.3645   27.0596    8.1343 N.3   147  UNL147     -0.3437
    586 H           4.0955   27.5577    8.9816 H     147  UNL147      0.1146
    587 H           4.9325   27.7108    7.5941 H     147  UNL147      0.1146
    588 H           4.9957   26.3175    8.4331 H     147  UNL147      0.1146
    589 N           5.6426   27.9220   10.8163 N.3   148  UNL148     -0.3437
    590 H           5.4428   28.2126   11.7723 H     148  UNL148      0.1146
    591 H           6.2937   28.6116   10.4434 H     148  UNL148      0.1146
    592 H           6.1677   27.0519   10.8912 H     148  UNL148      0.1146
    593 N           5.5662   29.9594    0.6948 N.3   149  UNL149     -0.3437
    594 H           5.0077   30.5205    1.3364 H     149  UNL149      0.1146
    595 H           6.1065   30.6217    0.1398 H     149  UNL149      0.1146
    596 H           6.2413   29.4606    1.2725 H     149  UNL149      0.1146
    597 N           5.8518   30.0178    3.8588 N.3   150  UNL150     -0.3437
    598 H           5.5125   30.7057    4.5296 H     150  UNL150      0.1146
    599 H           6.2751   30.5504    3.1001 H     150  UNL150      0.1146
    600 H           6.6178   29.5294    4.3204 H     150  UNL150      0.1146
    601 N           5.3584   30.1955    7.5050 N.3   151  UNL151     -0.3437
    602 H           5.7706   30.6935    8.2926 H     151  UNL151      0.1146
    603 H           5.3748   30.8467    6.7213 H     151  UNL151      0.1146
    604 H           6.0150   29.4534    7.2672 H     151  UNL151      0.1146
    605 N           4.7984   30.5180   10.8456 N.3   152  UNL152     -0.3437
    606 H           4.7107   31.1942   10.0884 H     152  UNL152      0.1146
    607 H           4.7875   31.0597   11.7087 H     152  UNL152      0.1146
    608 H           3.9341   29.9784   10.8419 H     152  UNL152      0.1146
    609 N           5.3216   34.1641    0.1263 N.3   153  UNL153     -0.3437
    610 H           4.8799   33.4184   -0.4096 H     153  UNL153      0.1146
    611 H           6.0472   33.7168    0.6847 H     153  UNL153      0.1146
    612 H           5.8091   34.7471   -0.5525 H     153  UNL153      0.1146
    613 N           4.0592   32.9346    2.3867 N.3   154  UNL154     -0.3437
    614 H           4.6766   32.3913    1.7850 H     154  UNL154      0.1146
    615 H           3.4827   33.4973    1.7628 H     154  UNL154      0.1146
    616 H           3.4287   32.2627    2.8220 H     154  UNL154      0.1146
    617 N           5.6130   33.1148    5.3631 N.3   155  UNL155     -0.3437
    618 H           5.1713   32.7394    4.5250 H     155  UNL155      0.1146
    619 H           6.3386   32.4475    5.6211 H     155  UNL155      0.1146
    620 H           6.1005   33.9599    5.0690 H     155  UNL155      0.1146
    621 N           5.4604   33.4305    8.4074 N.3   156  UNL156     -0.3437
    622 H           5.0187   32.7071    7.8417 H     156  UNL156      0.1146
    623 H           6.1860   32.9610    8.9472 H     156  UNL156      0.1146
    624 H           5.9479   34.0405    7.7527 H     156  UNL156      0.1146
    625 N           5.3229   33.4282   11.6528 N.3   157  UNL157     -0.3437
    626 H           4.8812   33.0869   10.8003 H     157  UNL157      0.1146
    627 H           6.0485   32.7509   11.8837 H     157  UNL157      0.1146
    628 H           5.8104   34.2845   11.3932 H     157  UNL157      0.1146
    629 N           9.2809   -0.0158   -0.4320 N.3   158  UNL158     -0.3437
    630 H           8.8392   -0.6246   -1.1194 H     158  UNL158      0.1146
    631 H          10.0065   -0.5754    0.0138 H     158  UNL158      0.1146
    632 H           9.7684    0.7028   -0.9653 H     158  UNL158      0.1146
    633 N           8.4516    0.3427    2.3478 N.3   159  UNL159     -0.3437
    634 H           7.9178   -0.1528    1.6350 H     159  UNL159      0.1146
    635 H           9.0248   -0.3619    2.8098 H     159  UNL159      0.1146
    636 H           9.1000    0.9462    1.8441 H     159  UNL159      0.1146
    637 N           8.5481   -0.0900    5.3848 N.3   160  UNL160     -0.3437
    638 H           8.1064   -0.6413    4.6504 H     160  UNL160      0.1146
    639 H           9.2737   -0.6838    5.7839 H     160  UNL160      0.1146
    640 H           9.0356    0.6693    4.9113 H     160  UNL160      0.1146
    641 N           8.1893    0.3808    8.1262 N.3   161  UNL161     -0.3437
    642 H           7.7476    0.8880    8.8917 H     161  UNL161      0.1146
    643 H           8.9149    0.9971    7.7627 H     161  UNL161      0.1146
    644 H           8.6768   -0.4050    8.5543 H     161  UNL161      0.1146
    645 N           8.6362   -0.2494   11.0651 N.3   162  UNL162     -0.3437
    646 H           8.1945    0.4395   11.6723 H     162  UNL162      0.1146
    647 H           9.3618    0.2510   10.5538 H     162  UNL162      0.1146
    648 H           9.1237   -0.8968   11.6829 H     162  UNL162      0.1146
    649 N           8.2415    3.5094    1.5672 N.3   163  UNL163     -0.3437
    650 H           7.7998    4.1983    2.1744 H     163  UNL163      0.1146
    651 H           8.9671    4.0099    1.0558 H     163  UNL163      0.1146
    652 H           8.7290    2.8621    2.1849 H     163  UNL163      0.1146
    653 N           8.1416    2.8066    5.3947 N.3   164  UNL164     -0.3437
    654 H           7.5694    3.5202    5.8440 H     164  UNL164      0.1146
    655 H           8.6719    3.2874    4.6694 H     164  UNL164      0.1146
    656 H           8.8232    2.5126    6.0928 H     164  UNL164      0.1146
    657 N           8.3987    3.3841    8.3548 N.3   165  UNL165     -0.3437
    658 H           7.9570    4.0730    8.9620 H     165  UNL165      0.1146
    659 H           9.1243    3.8845    7.8435 H     165  UNL165      0.1146
    660 H           8.8862    2.7367    8.9725 H     165  UNL165      0.1146
    661 N           8.7117    2.8659   11.2792 N.3   166  UNL166     -0.3437
    662 H           8.1892    3.2476   12.0664 H     166  UNL166      0.1146
    663 H           9.2095    3.6525   10.8646 H     166  UNL166      0.1146
    664 H           9.4266    2.2623   11.6828 H     166  UNL166      0.1146
    665 N           8.5389    6.4737    1.9267 N.3   167  UNL167     -0.3437
    666 H           9.2250    6.5694    2.6741 H     167  UNL167      0.1146
    667 H           7.6894    6.9225    2.2661 H     167  UNL167      0.1146
    668 H           8.8761    7.0541    1.1600 H     167  UNL167      0.1146
    669 N           8.4526    6.0633    4.8178 N.3   168  UNL168     -0.3437
    670 H           9.0869    5.3176    4.5348 H     168  UNL168      0.1146
    671 H           7.7211    5.6159    5.3684 H     168  UNL168      0.1146
    672 H           8.9771    6.6463    5.4685 H     168  UNL168      0.1146
    673 N           8.4816    6.5455    7.8781 N.3   169  UNL169     -0.3437
    674 H           9.0204    5.7998    7.4398 H     169  UNL169      0.1146
    675 H           7.9186    6.0982    8.6000 H     169  UNL169      0.1146
    676 H           9.1573    7.1285    8.3699 H     169  UNL169      0.1146
    677 N           8.2968    6.2215   10.8965 N.3   170  UNL170     -0.3437
    678 H           9.0723    5.7812   10.4035 H     170  UNL170      0.1146
    679 H           7.7444    5.4601   11.2882 H     170  UNL170      0.1146
    680 H           8.7091    6.7073   11.6917 H     170  UNL170      0.1146
    681 N           8.3893    9.0496   -1.0928 N.3   171  UNL171     -0.3437
    682 H           7.9053    9.5805   -0.3701 H     171  UNL171      0.1146
    683 H           9.1423    9.6501   -1.4257 H     171  UNL171      0.1146
    684 H           8.8412    8.2715   -0.6145 H     171  UNL171      0.1146
    685 N           8.7607    9.6933    2.0410 N.3   172  UNL172     -0.3437
    686 H           8.3190    8.9476    1.5051 H     172  UNL172      0.1146
    687 H           9.4863    9.2459    2.5994 H     172  UNL172      0.1146
    688 H           9.2482   10.2762    1.3622 H     172  UNL172      0.1146
    689 N           8.7693    9.2762    5.0934 N.3   173  UNL173     -0.3437
    690 H           9.4600    9.7996    4.5572 H     173  UNL173      0.1146
    691 H           8.3351    8.6294    4.4365 H     173  UNL173      0.1146
    692 H           9.2985    8.7001    5.7465 H     173  UNL173      0.1146
    693 N           8.3222    9.5374    8.2030 N.3   174  UNL174     -0.3437
    694 H           7.8615    8.8089    7.6595 H     174  UNL174      0.1146
    695 H           8.7528    9.0656    8.9970 H     174  UNL174      0.1146
    696 H           9.0913    9.8745    7.6258 H     174  UNL174      0.1146
    697 N           8.4192    9.3406   11.6166 N.3   175  UNL175     -0.3437
    698 H           7.9775    8.7601   10.9051 H     175  UNL175      0.1146
    699 H           9.1448    8.7634   12.0394 H     175  UNL175      0.1146
    700 H           8.9067   10.0801   11.1128 H     175  UNL175      0.1146
    701 N           8.9146   12.8135    2.0720 N.3   176  UNL176     -0.3437
    702 H           8.3068   12.0932    2.4595 H     176  UNL176      0.1146
    703 H           9.4867   13.1453    2.8472 H     176  UNL176      0.1146
    704 H           9.5516   12.3326    1.4385 H     176  UNL176      0.1146
    705 N           8.4740   12.4535    5.0942 N.3   177  UNL177     -0.3437
    706 H           7.8327   12.8553    4.4118 H     177  UNL177      0.1146
    707 H           9.0846   11.8273    4.5712 H     177  UNL177      0.1146
    708 H           9.0642   13.2214    5.4110 H     177  UNL177      0.1146
    709 N           8.3812   12.4321    7.9730 N.3   178  UNL178     -0.3437
    710 H           7.8228   12.8070    8.7385 H     178  UNL178      0.1146
    711 H           8.9215   13.2159    7.6095 H     178  UNL178      0.1146
    712 H           9.0564   11.8002    8.4011 H     178  UNL178      0.1146
    713 N           8.4031   12.3118   11.2054 N.3   179  UNL179     -0.3437
    714 H           7.7977   13.0092   11.6360 H     179  UNL179      0.1146
    715 H           8.9740   12.8152   10.5279 H     179  UNL179      0.1146
    716 H           9.0419   12.0041   11.9373 H     179  UNL179      0.1146
    717 N           8.2538   14.7711   -0.5195 N.3   180  UNL180     -0.3437
    718 H           7.6954   15.3322    0.1222 H     180  UNL180      0.1146
    719 H           8.7941   15.4334   -1.0744 H     180  UNL180      0.1146
    720 H           8.9290   14.2723    0.0583 H     180  UNL180      0.1146
    721 N           7.6600   15.7829    2.4791 N.3   181  UNL181     -0.3437
    722 H           7.2183   16.4718    3.0863 H     181  UNL181      0.1146
    723 H           8.3856   16.2834    1.9678 H     181  UNL181      0.1146
    724 H           8.1475   15.1355    3.0969 H     181  UNL181      0.1146
    725 N           8.8658   15.7802    5.2216 N.3   182  UNL182     -0.3437
    726 H           8.4241   16.4691    5.8288 H     182  UNL182      0.1146
    727 H           9.5914   16.2807    4.7103 H     182  UNL182      0.1146
    728 H           9.3533   15.1328    5.8393 H     182  UNL182      0.1146
    729 N           8.5552   15.5173    8.2267 N.3   183  UNL183     -0.3437
    730 H           8.0736   16.1694    8.8440 H     183  UNL183      0.1146
    731 H           9.2406   16.0701    7.7137 H     183  UNL183      0.1146
    732 H           9.0911   14.8991    8.8342 H     183  UNL183      0.1146
    733 N           8.5698   15.3732   11.2851 N.3   184  UNL184     -0.3437
    734 H           8.0307   14.7989   10.6387 H     184  UNL184      0.1146
    735 H           9.1514   14.7272   11.8170 H     184  UNL184      0.1146
    736 H           9.2100   15.9185   10.7095 H     184  UNL184      0.1146
    737 N           8.4008   18.2181    0.6984 N.3   185  UNL185     -0.3437
    738 H           8.1432   17.3680    0.1992 H     185  UNL185      0.1146
    739 H           9.3648   18.4174    0.4350 H     185  UNL185      0.1146
    740 H           7.8386   18.9641    0.2913 H     185  UNL185      0.1146
    741 N           8.6312   18.5782    3.8052 N.3   186  UNL186     -0.3437
    742 H           9.3088   17.9021    3.4557 H     186  UNL186      0.1146
    743 H           8.0726   18.8579    3.0002 H     186  UNL186      0.1146
    744 H           8.0033   18.0568    4.4153 H     186  UNL186      0.1146
    745 N           8.1400   18.3325    7.5365 N.3   187  UNL187     -0.3437
    746 H           7.6380   19.1662    7.8387 H     187  UNL187      0.1146
    747 H           8.6617   18.6048    6.7046 H     187  UNL187      0.1146
    748 H           8.8366   18.1475    8.2568 H     187  UNL187      0.1146
    749 N           8.7709   18.3979   11.0088 N.3   188  UNL188     -0.3437
    750 H           8.2364   18.9624   11.6677 H     188  UNL188      0.1146
    751 H           9.2607   19.0579   10.4064 H     188  UNL188      0.1146
    752 H           9.4911   17.9314   11.5584 H     188  UNL188      0.1146
    753 N           9.0339   20.7564   -0.7635 N.3   189  UNL189     -0.3437
    754 H           9.2231   19.8614   -1.2124 H     189  UNL189      0.1146
    755 H           9.6470   20.7982    0.0494 H     189  UNL189      0.1146
    756 H           9.3718   21.4705   -1.4071 H     189  UNL189      0.1146
    757 N           8.7634   21.2443    2.3847 N.3   190  UNL190     -0.3437
    758 H           8.3218   20.6637    1.6732 H     190  UNL190      0.1146
    759 H           9.4890   20.6671    2.8075 H     190  UNL190      0.1146
    760 H           9.2509   21.9838    1.8809 H     190  UNL190      0.1146
    761 N           8.3932   21.1187    5.4501 N.3   191  UNL191     -0.3437
    762 H           7.9515   20.5381    4.7386 H     191  UNL191      0.1146
    763 H           9.1188   20.5415    5.8729 H     191  UNL191      0.1146
    764 H           8.8807   21.8582    4.9463 H     191  UNL191      0.1146
    765 N           8.1875   21.5469    8.1344 N.3   192  UNL192     -0.3437
    766 H           7.7702   22.0882    8.8901 H     192  UNL192      0.1146
    767 H           8.8337   22.1769    7.6612 H     192  UNL192      0.1146
    768 H           8.7651   20.8373    8.5830 H     192  UNL192      0.1146
    769 N           8.5124   21.5063   11.2140 N.3   193  UNL193     -0.3437
    770 H           7.8919   20.9012   10.6781 H     193  UNL193      0.1146
    771 H           9.0966   20.8856   11.7724 H     193  UNL193      0.1146
    772 H           9.1348   21.9424   10.5352 H     193  UNL193      0.1146
    773 N           8.3472   24.7698    0.8694 N.3   194  UNL194     -0.3437
    774 H           7.4976   24.5530    1.3885 H     194  UNL194      0.1146
    775 H           8.7712   25.5655    1.3443 H     194  UNL194      0.1146
    776 H           8.9776   23.9837    1.0212 H     194  UNL194      0.1146
    777 N           9.0800   24.1978    3.5232 N.3   195  UNL195     -0.3437
    778 H           9.3994   23.6309    4.3074 H     195  UNL195      0.1146
    779 H           8.9293   25.1340    3.8963 H     195  UNL195      0.1146
    780 H           9.8741   24.2727    2.8890 H     195  UNL195      0.1146
    781 N           8.2223   24.5373    6.3478 N.3   196  UNL196     -0.3437
    782 H           7.7924   23.8985    7.0153 H     196  UNL196      0.1146
    783 H           7.4694   25.1305    6.0018 H     196  UNL196      0.1146
    784 H           8.8310   25.1457    6.8934 H     196  UNL196      0.1146
    785 N           8.5425   24.4503    9.4275 N.3   197  UNL197     -0.3437
    786 H           8.7077   24.2803   10.4185 H     197  UNL197      0.1146
    787 H           8.9790   25.3474    9.2198 H     197  UNL197      0.1146
    788 H           9.0884   23.7499    8.9276 H     197  UNL197      0.1146
    789 N           8.4151   24.6734   13.1051 N.3   198  UNL198     -0.3437
    790 H           8.0838   23.9881   13.7825 H     198  UNL198      0.1146
    791 H           9.0122   25.3156   13.6242 H     198  UNL198      0.1146
    792 H           9.0317   24.1667   12.4715 H     198  UNL198      0.1146
    793 N           6.9767   27.2185    1.9346 N.3   199  UNL199     -0.3437
    794 H           6.3712   27.6052    2.6572 H     199  UNL199      0.1146
    795 H           7.5475   27.9942    1.6017 H     199  UNL199      0.1146
    796 H           7.6154   26.5847    2.4128 H     199  UNL199      0.1146
    797 N           8.1023   27.5032    4.6573 N.3   200  UNL200     -0.3437
    798 H           7.6606   28.0104    5.4228 H     200  UNL200      0.1146
    799 H           8.8279   28.1195    4.2938 H     200  UNL200      0.1146
    800 H           8.5898   26.7174    5.0854 H     200  UNL200      0.1146
    801 N           7.3865   27.3024    7.8712 N.3   201  UNL201     -0.3437
    802 H           7.1392   28.0825    8.4784 H     201  UNL201      0.1146
    803 H           8.2173   27.5968    7.3599 H     201  UNL201      0.1146
    804 H           7.6888   26.5505    8.4890 H     201  UNL201      0.1146
    805 N           8.5769   27.1930   10.9043 N.3   202  UNL202     -0.3437
    806 H           8.1353   27.4836   11.7754 H     202  UNL202      0.1146
    807 H           9.3025   27.8827   10.7136 H     202  UNL202      0.1146
    808 H           9.0644   26.3230   11.1131 H     202  UNL202      0.1146
    809 N           8.5322   30.5638    0.5133 N.3   203  UNL203     -0.3437
    810 H           8.0905   31.2527    1.1205 H     203  UNL203      0.1146
    811 H           9.2578   31.0643    0.0020 H     203  UNL203      0.1146
    812 H           9.0197   29.9165    1.1311 H     203  UNL203      0.1146
    813 N           8.8084   30.7238    3.4268 N.3   204  UNL204     -0.3437
    814 H           8.3667   31.4127    4.0340 H     204  UNL204      0.1146
    815 H           9.5340   31.2243    2.9154 H     204  UNL204      0.1146
    816 H           9.2959   30.0765    4.0445 H     204  UNL204      0.1146
    817 N           8.3027   30.2970    6.2430 N.3   205  UNL205     -0.3437
    818 H           7.5712   30.9047    6.6089 H     205  UNL205      0.1146
    819 H           9.1621   30.8438    6.2708 H     205  UNL205      0.1146
    820 H           8.4204   29.5539    6.9302 H     205  UNL205      0.1146
    821 N           8.1363   30.3774    9.3576 N.3   206  UNL206     -0.3437
    822 H           7.8664   31.0896   10.0345 H     206  UNL206      0.1146
    823 H           9.1401   30.4866    9.2202 H     206  UNL206      0.1146
    824 H           8.0130   29.4818    9.8278 H     206  UNL206      0.1146
    825 N           8.5428   30.0749   12.3307 N.3   207  UNL207     -0.3437
    826 H           9.0616   29.2284   12.5602 H     207  UNL207      0.1146
    827 H           7.8651   30.2011   13.0812 H     207  UNL207      0.1146
    828 H           9.2060   30.8435   12.4190 H     207  UNL207      0.1146
    829 N           8.4267   33.6516   -0.5165 N.3   208  UNL208     -0.3437
    830 H           7.8472   33.7067   -1.3528 H     208  UNL208      0.1146
    831 H           9.2771   33.1645   -0.7956 H     208  UNL208      0.1146
    832 H           8.7074   34.6082   -0.3057 H     208  UNL208      0.1146
    833 N           7.0883   33.6573    2.8309 N.3   209  UNL209     -0.3437
    834 H           7.6141   33.9479    2.0078 H     209  UNL209      0.1146
    835 H           6.3474   34.3469    2.9487 H     209  UNL209      0.1146
    836 H           6.6239   32.7872    2.5747 H     209  UNL209      0.1146
    837 N           8.6548   33.6630    5.4031 N.3   210  UNL210     -0.3437
    838 H           8.4499   32.7374    5.7768 H     210  UNL210      0.1146
    839 H           9.4051   34.0394    5.9808 H     210  UNL210      0.1146
    840 H           9.0603   33.5101    4.4809 H     210  UNL210      0.1146
    841 N           8.9639   33.0589    8.3500 N.3   211  UNL211     -0.3437
    842 H           8.0744   33.3791    7.9697 H     211  UNL211      0.1146
    843 H           9.1934   32.2036    7.8457 H     211  UNL211      0.1146
    844 H           9.6568   33.7487    8.0627 H     211  UNL211      0.1146
    845 N           8.3183   33.9524   11.5548 N.3   212  UNL212     -0.3437
    846 H           8.8075   34.2806   10.7233 H     212  UNL212      0.1146
    847 H           9.0427   33.6864   12.2203 H     212  UNL212      0.1146
    848 H           7.8589   34.7707   11.9518 H     212  UNL212      0.1146
    849 N          11.2497   -0.2760    8.0423 N.3   213  UNL213     -0.3437
    850 H          10.6912    0.0988    8.8078 H     213  UNL213      0.1146
    851 H          11.7900    0.5078    7.6787 H     213  UNL213      0.1146
    852 H          11.9248   -0.9079    8.4703 H     213  UNL213      0.1146
    853 N          11.2153    2.8637    2.0589 N.3   214  UNL214     -0.3437
    854 H          10.6569    3.4248    2.7005 H     214  UNL214      0.1146
    855 H          11.7556    3.5259    1.5039 H     214  UNL214      0.1146
    856 H          11.8905    2.3649    2.6366 H     214  UNL214      0.1146
    857 N          11.0022    5.6152    0.4942 N.3   215  UNL215     -0.3437
    858 H          10.9549    6.6292    0.5829 H     215  UNL215      0.1146
    859 H          10.7737    5.2418    1.4144 H     215  UNL215      0.1146
    860 H          10.2303    5.3502   -0.1159 H     215  UNL215      0.1146
    861 N          11.1217    5.9493   12.4763 N.3   216  UNL216     -0.3437
    862 H          10.6505    5.0458   12.4892 H     216  UNL216      0.1146
    863 H          11.5415    6.0602   13.3982 H     216  UNL216      0.1146
    864 H          11.8983    5.8517   11.8239 H     216  UNL216      0.1146
    865 N          10.7168   15.6714    2.3615 N.3   217  UNL217     -0.3437
    866 H          10.2766   15.1928    1.5768 H     217  UNL217      0.1146
    867 H          10.1992   16.5401    2.4868 H     217  UNL217      0.1146
    868 H          10.5169   15.1043    3.1842 H     217  UNL217      0.1146
    869 N          11.6247   24.0209   12.8981 N.3   218  UNL218     -0.3437
    870 H          11.0287   24.8215   12.6928 H     218  UNL218      0.1146
    871 H          11.0078   23.2990   13.2679 H     218  UNL218      0.1146
    872 H          11.9520   23.6759   11.9969 H     218  UNL218      0.1146
    873 N          10.7712   26.5213   -0.9926 N.3   219  UNL219     -0.3437
    874 H          10.3449   27.4400   -1.1045 H     219  UNL219      0.1146
    875 H          11.5478   26.6490   -0.3453 H     219  UNL219      0.1146
    876 H          10.0853   25.9516   -0.4993 H     219  UNL219      0.1146
    877 N          10.1087   27.7225    2.0067 N.3   220  UNL220     -0.3437
    878 H          10.0478   28.5978    2.5248 H     220  UNL220      0.1146
    879 H           9.6441   27.0221    2.5829 H     220  UNL220      0.1146
    880 H           9.5215   27.8424    1.1826 H     220  UNL220      0.1146
    881 N          10.6017   26.9331    7.5866 N.3   221  UNL221     -0.3437
    882 H           9.9748   27.0274    8.3844 H     221  UNL221      0.1146
    883 H          10.3768   27.7045    6.9599 H     221  UNL221      0.1146
    884 H          11.5380   27.1233    7.9411 H     221  UNL221      0.1146
    885 N          10.1567   33.3988    1.6834 N.3   222  UNL222     -0.3437
    886 H           9.3152   32.8245    1.6625 H     222  UNL222      0.1146
    887 H          10.0359   34.0460    2.4612 H     222  UNL222      0.1146
    888 H          10.9160   32.7748    1.9527 H     222  UNL222      0.1146
    889 N          11.0925   32.8970   10.6850 N.3   223  UNL223     -0.3437
    890 H          10.3847   32.3406   11.1623 H     223  UNL223      0.1146
    891 H          11.5224   32.2769   10.0001 H     223  UNL223      0.1146
    892 H          10.5838   33.5983   10.1485 H     223  UNL223      0.1146
@<TRIPOS>BOND
     1     1     2    1
     2     1     3    1
     3     1     4    1
     4     5     6    1
     5     5     7    1
     6     5     8    1
     7     9    10    1
     8     9    11    1
     9     9    12    1
    10    13    14    1
    11    13    15    1
    12    13    16    1
    13    17    18    1
    14    17    19    1
    15    17    20    1
    16    21    22    1
    17    21    23    1
    18    21    24    1
    19    25    26    1
    20    25    27    1
    21    25    28    1
    22    29    30    1
    23    29    31    1
    24    29    32    1
    25    33    34    1
    26    33    35    1
    27    33    36    1
    28    37    38    1
    29    37    39    1
    30    37    40    1
    31    41    42    1
    32    41    43    1
    33    41    44    1
    34    45    46    1
    35    45    47    1
    36    45    48    1
    37    49    50    1
    38    49    51    1
    39    49    52    1
    40    53    54    1
    41    53    55    1
    42    53    56    1
    43    57    58    1
    44    57    59    1
    45    57    60    1
    46    61    62    1
    47    61    63    1
    48    61    64    1
    49    65    66    1
    50    65    67    1
    51    65    68    1
    52    69    70    1
    53    69    71    1
    54    69    72    1
    55    73    74    1
    56    73    75    1
    57    73    76    1
    58    77    78    1
    59    77    79    1
    60    77    80    1
    61    81    82    1
    62    81    83    1
    63    81    84    1
    64    85    86    1
    65    85    87    1
    66    85    88    1
    67    89    90    1
    68    89    91    1
    69    89    92    1
    70    93    94    1
    71    93    95    1
    72    93    96    1
    73    97    98    1
    74    97    99    1
    75    97   100    1
    76   101   102    1
    77   101   103    1
    78   101   104    1
    79   105   106    1
    80   105   107    1
    81   105   108    1
    82   109   110    1
    83   109   111    1
    84   109   112    1
    85   113   114    1
    86   113   115    1
    87   113   116    1
    88   117   118    1
    89   117   119    1
    90   117   120    1
    91   121   122    1
    92   121   123    1
    93   121   124    1
    94   125   126    1
    95   125   127    1
    96   125   128    1
    97   129   130    1
    98   129   131    1
    99   129   132    1
   100   133   134    1
   101   133   135    1
   102   133   136    1
   103   137   138    1
   104   137   139    1
   105   137   140    1
   106   141   142    1
   107   141   143    1
   108   141   144    1
   109   145   146    1
   110   145   147    1
   111   145   148    1
   112   149   150    1
   113   149   151    1
   114   149   152    1
   115   153   154    1
   116   153   155    1
   117   153   156    1
   118   157   158    1
   119   157   159    1
   120   157   160    1
   121   161   162    1
   122   161   163    1
   123   161   164    1
   124   165   166    1
   125   165   167    1
   126   165   168    1
   127   169   170    1
   128   169   171    1
   129   169   172    1
   130   173   174    1
   131   173   175    1
   132   173   176    1
   133   177   178    1
   134   177   179    1
   135   177   180    1
   136   181   182    1
   137   181   183    1
   138   181   184    1
   139   185   186    1
   140   185   187    1
   141   185   188    1
   142   189   190    1
   143   189   191    1
   144   189   192    1
   145   193   194    1
   146   193   195    1
   147   193   196    1
   148   197   198    1
   149   197   199    1
   150   197   200    1
   151   201   202    1
   152   201   203    1
   153   201   204    1
   154   205   206    1
   155   205   207    1
   156   205   208    1
   157   209   210    1
   158   209   211    1
   159   209   212    1
   160   213   214    1
   161   213   215    1
   162   213   216    1
   163   217   218    1
   164   217   219    1
   165   217   220    1
   166   221   222    1
   167   221   223    1
   168   221   224    1
   169   225   226    1
   170   225   227    1
   171   225   228    1
   172   229   230    1
   173   229   231    1
   174   229   232    1
   175   233   234    1
   176   233   235    1
   177   233   236    1
   178   237   238    1
   179   237   239    1
   180   237   240    1
   181   241   242    1
   182   241   243    1
   183   241   244    1
   184   245   246    1
   185   245   247    1
   186   245   248    1
   187   249   250    1
   188   249   251    1
   189   249   252    1
   190   253   254    1
   191   253   255    1
   192   253   256    1
   193   257   258    1
   194   257   259    1
   195   257   260    1
   196   261   262    1
   197   261   263    1
   198   261   264    1
   199   265   266    1
   200   265   267    1
   201   265   268    1
   202   269   270    1
   203   269   271    1
   204   269   272    1
   205   273   274    1
   206   273   275    1
   207   273   276    1
   208   277   278    1
   209   277   279    1
   210   277   280    1
   211   281   282    1
   212   281   283    1
   213   281   284    1
   214   285   286    1
   215   285   287    1
   216   285   288    1
   217   289   290    1
   218   289   291    1
   219   289   292    1
   220   293   294    1
   221   293   295    1
   222   293   296    1
   223   297   298    1
   224   297   299    1
   225   297   300    1
   226   301   302    1
   227   301   303    1
   228   301   304    1
   229   305   306    1
   230   305   307    1
   231   305   308    1
   232   309   310    1
   233   309   311    1
   234   309   312    1
   235   313   314    1
   236   313   315    1
   237   313   316    1
   238   317   318    1
   239   317   319    1
   240   317   320    1
   241   321   322    1
   242   321   323    1
   243   321   324    1
   244   325   326    1
   245   325   327    1
   246   325   328    1
   247   329   330    1
   248   329   331    1
   249   329   332    1
   250   333   334    1
   251   333   335    1
   252   333   336    1
   253   337   338    1
   254   337   339    1
   255   337   340    1
   256   341   342    1
   257   341   343    1
   258   341   344    1
   259   345   346    1
   260   345   347    1
   261   345   348    1
   262   349   350    1
   263   349   351    1
   264   349   352    1
   265   353   354    1
   266   353   355    1
   267   353   356    1
   268   357   358    1
   269   357   359    1
   270   357   360    1
   271   361   362    1
   272   361   363    1
   273   361   364    1
   274   365   366    1
   275   365   367    1
   276   365   368    1
   277   369   370    1
   278   369   371    1
   279   369   372    1
   280   373   374    1
   281   373   375    1
   282   373   376    1
   283   377   378    1
   284   377   379    1
   285   377   380    1
   286   381   382    1
   287   381   383    1
   288   381   384    1
   289   385   386    1
   290   385   387    1
   291   385   388    1
   292   389   390    1
   293   389   391    1
   294   389   392    1
   295   393   394    1
   296   393   395    1
   297   393   396    1
   298   397   398    1
   299   397   399    1
   300   397   400    1
   301   401   402    1
   302   401   403    1
   303   401   404    1
   304   405   406    1
   305   405   407    1
   306   405   408    1
   307   409   410    1
   308   409   411    1
   309   409   412    1
   310   413   414    1
   311   413   415    1
   312   413   416    1
   313   417   418    1
   314   417   419    1
   315   417   420    1
   316   421   422    1
   317   421   423    1
   318   421   424    1
   319   425   426    1
   320   425   427    1
   321   425   428    1
   322   429   430    1
   323   429   431    1
   324   429   432    1
   325   433   434    1
   326   433   435    1
   327   433   436    1
   328   437   438    1
   329   437   439    1
   330   437   440    1
   331   441   442    1
   332   441   443    1
   333   441   444    1
   334   445   446    1
   335   445   447    1
   336   445   448    1
   337   449   450    1
   338   449   451    1
   339   449   452    1
   340   453   454    1
   341   453   455    1
   342   453   456    1
   343   457   458    1
   344   457   459    1
   345   457   460    1
   346   461   462    1
   347   461   463    1
   348   461   464    1
   349   465   466    1
   350   465   467    1
   351   465   468    1
   352   469   470    1
   353   469   471    1
   354   469   472    1
   355   473   474    1
   356   473   475    1
   357   473   476    1
   358   477   478    1
   359   477   479    1
   360   477   480    1
   361   481   482    1
   362   481   483    1
   363   481   484    1
   364   485   486    1
   365   485   487    1
   366   485   488    1
   367   489   490    1
   368   489   491    1
   369   489   492    1
   370   493   494    1
   371   493   495    1
   372   493   496    1
   373   497   498    1
   374   497   499    1
   375   497   500    1
   376   501   502    1
   377   501   503    1
   378   501   504    1
   379   505   506    1
   380   505   507    1
   381   505   508    1
   382   509   510    1
   383   509   511    1
   384   509   512    1
   385   513   514    1
   386   513   515    1
   387   513   516    1
   388   517   518    1
   389   517   519    1
   390   517   520    1
   391   521   522    1
   392   521   523    1
   393   521   524    1
   394   525   526    1
   395   525   527    1
   396   525   528    1
   397   529   530    1
   398   529   531    1
   399   529   532    1
   400   533   534    1
   401   533   535    1
   402   533   536    1
   403   537   538    1
   404   537   539    1
   405   537   540    1
   406   541   542    1
   407   541   543    1
   408   541   544    1
   409   545   546    1
   410   545   547    1
   411   545   548    1
   412   549   550    1
   413   549   551    1
   414   549   552    1
   415   553   554    1
   416   553   555    1
   417   553   556    1
   418   557   558    1
   419   557   559    1
   420   557   560    1
   421   561   562    1
   422   561   563    1
   423   561   564    1
   424   565   566    1
   425   565   567    1
   426   565   568    1
   427   569   570    1
   428   569   571    1
   429   569   572    1
   430   573   574    1
   431   573   575    1
   432   573   576    1
   433   577   578    1
   434   577   579    1
   435   577   580    1
   436   581   582    1
   437   581   583    1
   438   581   584    1
   439   585   586    1
   440   585   587    1
   441   585   588    1
   442   589   590    1
   443   589   591    1
   444   589   592    1
   445   593   594    1
   446   593   595    1
   447   593   596    1
   448   597   598    1
   449   597   599    1
   450   597   600    1
   451   601   602    1
   452   601   603    1
   453   601   604    1
   454   605   606    1
   455   605   607    1
   456   605   608    1
   457   609   610    1
   458   609   611    1
   459   609   612    1
   460   613   614    1
   461   613   615    1
   462   613   616    1
   463   617   618    1
   464   617   619    1
   465   617   620    1
   466   621   622    1
   467   621   623    1
   468   621   624    1
   469   625   626    1
   470   625   627    1
   471   625   628    1
   472   629   630    1
   473   629   631    1
   474   629   632    1
   475   633   634    1
   476   633   635    1
   477   633   636    1
   478   637   638    1
   479   637   639    1
   480   637   640    1
   481   641   642    1
   482   641   643    1
   483   641   644    1
   484   645   646    1
   485   645   647    1
   486   645   648    1
   487   649   650    1
   488   649   651    1
   489   649   652    1
   490   653   654    1
   491   653   655    1
   492   653   656    1
   493   657   658    1
   494   657   659    1
   495   657   660    1
   496   661   662    1
   497   661   663    1
   498   661   664    1
   499   665   666    1
   500   665   667    1
   501   665   668    1
   502   669   670    1
   503   669   671    1
   504   669   672    1
   505   673   674    1
   506   673   675    1
   507   673   676    1
   508   677   678    1
   509   677   679    1
   510   677   680    1
   511   681   682    1
   512   681   683    1
   513   681   684    1
   514   685   686    1
   515   685   687    1
   516   685   688    1
   517   689   690    1
   518   689   691    1
   519   689   692    1
   520   693   694    1
   521   693   695    1
   522   693   696    1
   523   697   698    1
   524   697   699    1
   525   697   700    1
   526   701   702    1
   527   701   703    1
   528   701   704    1
   529   705   706    1
   530   705   707    1
   531   705   708    1
   532   709   710    1
   533   709   711    1
   534   709   712    1
   535   713   714    1
   536   713   715    1
   537   713   716    1
   538   717   718    1
   539   717   719    1
   540   717   720    1
   541   721   722    1
   542   721   723    1
   543   721   724    1
   544   725   726    1
   545   725   727    1
   546   725   728    1
   547   729   730    1
   548   729   731    1
   549   729   732    1
   550   733   734    1
   551   733   735    1
   552   733   736    1
   553   737   738    1
   554   737   739    1
   555   737   740    1
   556   741   742    1
   557   741   743    1
   558   741   744    1
   559   745   746    1
   560   745   747    1
   561   745   748    1
   562   749   750    1
   563   749   751    1
   564   749   752    1
   565   753   754    1
   566   753   755    1
   567   753   756    1
   568   757   758    1
   569   757   759    1
   570   757   760    1
   571   761   762    1
   572   761   763    1
   573   761   764    1
   574   765   766    1
   575   765   767    1
   576   765   768    1
   577   769   770    1
   578   769   771    1
   579   769   772    1
   580   773   774    1
   581   773   775    1
   582   773   776    1
   583   777   778    1
   584   777   779    1
   585   777   780    1
   586   781   782    1
   587   781   783    1
   588   781   784    1
   589   785   786    1
   590   785   787    1
   591   785   788    1
   592   789   790    1
   593   789   791    1
   594   789   792    1
   595   793   794    1
   596   793   795    1
   597   793   796    1
   598   797   798    1
   599   797   799    1
   600   797   800    1
   601   801   802    1
   602   801   803    1
   603   801   804    1
   604   805   806    1
   605   805   807    1
   606   805   808    1
   607   809   810    1
   608   809   811    1
   609   809   812    1
   610   813   814    1
   611   813   815    1
   612   813   816    1
   613   817   818    1
   614   817   819    1
   615   817   820    1
   616   821   822    1
   617   821   823    1
   618   821   824    1
   619   825   826    1
   620   825   827    1
   621   825   828    1
   622   829   830    1
   623   829   831    1
   624   829   832    1
   625   833   834    1
   626   833   835    1
   627   833   836    1
   628   837   838    1
   629   837   839    1
   630   837   840    1
   631   841   842    1
   632   841   843    1
   633   841   844    1
   634   845   846    1
   635   845   847    1
   636   845   848    1
   637   849   850    1
   638   849   851    1
   639   849   852    1
   640   853   854    1
   641   853   855    1
   642   853   856    1
   643   857   858    1
   644   857   859    1
   645   857   860    1
   646   861   862    1
   647   861   863    1
   648   861   864    1
   649   865   866    1
   650   865   867    1
   651   865   868    1
   652   869   870    1
   653   869   871    1
   654   869   872    1
   655   873   874    1
   656   873   875    1
   657   873   876    1
   658   877   878    1
   659   877   879    1
   660   877   880    1
   661   881   882    1
   662   881   883    1
   663   881   884    1
   664   885   886    1
   665   885   887    1
   666   885   888    1
   667   889   890    1
   668   889   891    1
   669   889   892    1
