@<TRIPOS>MOLECULE
*****
 944 708 0 0 0
SMALL
GASTEIGER

@<TRIPOS>ATOM
      1 N          -0.9956   -0.7581    3.5102 N.3     1  UNL1       -0.3437
      2 H          -0.2291   -1.3562    3.2050 H       1  UNL1        0.1146
      3 H          -0.5931   -0.1072    4.1831 H       1  UNL1        0.1146
      4 H          -1.2554   -0.1986    2.6991 H       1  UNL1        0.1146
      5 N          -0.6546   -0.7524    6.8737 N.3     2  UNL2       -0.3437
      6 H           0.0765   -0.4193    6.2468 H       2  UNL2        0.1146
      7 H          -0.1881   -1.3440    7.5599 H       2  UNL2        0.1146
      8 H          -0.9810    0.0665    7.3847 H       2  UNL2        0.1146
      9 N          -1.0003    1.2836    0.2636 N.3     3  UNL3       -0.3437
     10 H          -1.2340    2.2567    0.4553 H       3  UNL3        0.1146
     11 H          -0.3936    1.2965   -0.5550 H       3  UNL3        0.1146
     12 H          -0.4169    0.9766    1.0407 H       3  UNL3        0.1146
     13 N          -1.1973    2.4163    3.1266 N.3     4  UNL4       -0.3437
     14 H          -1.3715    2.5840    4.1165 H       4  UNL4        0.1146
     15 H          -0.8787    3.3049    2.7429 H       4  UNL4        0.1146
     16 H          -0.3955    1.7888    3.0849 H       4  UNL4        0.1146
     17 N          -1.0298    5.7174    3.8177 N.3     5  UNL5       -0.3437
     18 H          -1.1058    5.4881    2.8278 H       5  UNL5        0.1146
     19 H          -0.6711    4.8794    4.2734 H       5  UNL5        0.1146
     20 H          -0.2897    6.4142    3.8887 H       5  UNL5        0.1146
     21 N          -0.5347    5.7060    6.8295 N.3     6  UNL6       -0.3437
     22 H          -1.0649    6.4631    7.2583 H       6  UNL6        0.1146
     23 H           0.3189    6.1299    6.4689 H       6  UNL6        0.1146
     24 H          -0.2448    5.0979    7.5941 H       6  UNL6        0.1146
     25 N          -0.7820    5.1745   12.6095 N.3     7  UNL7       -0.3437
     26 H          -1.2005    4.5876   13.3298 H       7  UNL7        0.1146
     27 H          -1.5407    5.4284   11.9783 H       7  UNL7        0.1146
     28 H          -0.5044    6.0368   13.0761 H       7  UNL7        0.1146
     29 N          -1.0416    8.7169    2.7897 N.3     8  UNL8       -0.3437
     30 H          -1.0471    7.7960    2.3534 H       8  UNL8        0.1146
     31 H          -0.2638    8.7111    3.4481 H       8  UNL8        0.1146
     32 H          -0.7830    9.3742    2.0553 H       8  UNL8        0.1146
     33 N          -0.3064    8.7045    6.0653 N.3     9  UNL9       -0.3437
     34 H           0.1889    9.5358    5.7459 H       9  UNL9        0.1146
     35 H          -0.6470    8.9226    7.0006 H       9  UNL9        0.1146
     36 H          -1.1340    8.6270    5.4760 H       9  UNL9        0.1146
     37 N          -0.8499    9.0039    9.7794 N.3    10  UNL10      -0.3437
     38 H          -0.0719    9.0252    9.1216 H      10  UNL10       0.1146
     39 H          -1.5418    9.6586    9.4174 H      10  UNL10       0.1146
     40 H          -1.2665    8.0781    9.6918 H      10  UNL10       0.1146
     41 N          -0.5355    8.6612   13.0507 N.3    11  UNL11      -0.3437
     42 H          -0.0320    9.5198   12.8330 H      11  UNL11       0.1146
     43 H          -1.5201    8.9186   13.1037 H      11  UNL11       0.1146
     44 H          -0.4448    8.0661   12.2285 H      11  UNL11       0.1146
     45 N          -0.8638   12.0446    3.4471 N.3    12  UNL12      -0.3437
     46 H          -1.3771   11.1844    3.6345 H      12  UNL12       0.1146
     47 H          -0.2919   12.2160    4.2729 H      12  UNL12       0.1146
     48 H          -0.2123   11.8247    2.6951 H      12  UNL12       0.1146
     49 N          -0.8767   12.0157    6.9214 N.3    13  UNL13      -0.3437
     50 H          -1.1030   11.0513    6.6826 H      13  UNL13       0.1146
     51 H          -0.6516   12.0136    7.9153 H      13  UNL13       0.1146
     52 H          -0.0059   12.2281    6.4368 H      13  UNL13       0.1146
     53 N          -0.5876   12.0895   12.3764 N.3    14  UNL14      -0.3437
     54 H          -1.2049   11.2882   12.2529 H      14  UNL14       0.1146
     55 H          -1.1920   12.9098   12.3928 H      14  UNL14       0.1146
     56 H          -0.2028   12.0054   13.3162 H      14  UNL14       0.1146
     57 N          -0.8507   14.6837    5.0616 N.3    15  UNL15      -0.3437
     58 H          -1.4722   15.3341    5.5402 H      15  UNL15       0.1146
     59 H          -0.2700   15.2514    4.4460 H      15  UNL15       0.1146
     60 H          -0.2251   14.3153    5.7767 H      15  UNL15       0.1146
     61 N          -0.9666   15.1741    8.1342 N.3    16  UNL16      -0.3437
     62 H          -1.4916   14.5118    7.5648 H      16  UNL16       0.1146
     63 H          -0.3366   14.6143    8.7071 H      16  UNL16       0.1146
     64 H          -0.3729   15.6916    7.4876 H      16  UNL16       0.1146
     65 N          -0.7898   15.1819   11.2499 N.3    17  UNL17      -0.3437
     66 H          -1.1007   14.3534   10.7446 H      17  UNL17       0.1146
     67 H          -0.2105   14.8425   12.0165 H      17  UNL17       0.1146
     68 H          -0.1599   15.6757   10.6192 H      17  UNL17       0.1146
     69 N          -0.9467   18.0461    3.5012 N.3    18  UNL18      -0.3437
     70 H          -1.1290   17.0435    3.5013 H      18  UNL18       0.1146
     71 H          -0.3752   18.2277    4.3251 H      18  UNL18       0.1146
     72 H          -0.3452   18.2222    2.6978 H      18  UNL18       0.1146
     73 N          -0.9810   21.3982    8.0011 N.3    19  UNL19      -0.3437
     74 H          -1.0903   20.8258    8.8370 H      19  UNL19       0.1146
     75 H          -0.4457   22.2162    8.2888 H      19  UNL19       0.1146
     76 H          -0.3731   20.8702    7.3767 H      19  UNL19       0.1146
     77 N          -0.8807   25.3725    0.3117 N.3    20  UNL20      -0.3437
     78 H          -1.2405   24.4809    0.6492 H      20  UNL20       0.1146
     79 H          -0.0888   25.6008    0.9110 H      20  UNL20       0.1146
     80 H          -0.4903   25.1867   -0.6110 H      20  UNL20       0.1146
     81 N          -0.7366   24.4529    3.5893 N.3    21  UNL21      -0.3437
     82 H          -1.5224   23.8155    3.7107 H      21  UNL21       0.1146
     83 H          -0.0199   24.1431    4.2441 H      21  UNL21       0.1146
     84 H          -0.3657   24.2674    2.6585 H      21  UNL21       0.1146
     85 N          -1.0497   24.1966    6.6698 N.3    22  UNL22      -0.3437
     86 H          -0.5826   23.3858    6.2664 H      22  UNL22       0.1146
     87 H          -0.6747   24.2970    7.6120 H      22  UNL22       0.1146
     88 H          -0.7136   25.0037    6.1464 H      22  UNL22       0.1146
     89 N          -0.5925   23.3037   13.2382 N.3    23  UNL23      -0.3437
     90 H          -0.0552   22.9109   12.4666 H      23  UNL23       0.1146
     91 H          -0.0274   23.1627   14.0744 H      23  UNL23       0.1146
     92 H          -0.6153   24.3102   13.0810 H      23  UNL23       0.1146
     93 N           2.5328   -1.3720    0.4734 N.3    24  UNL24      -0.3437
     94 H           2.1593   -0.4898    0.1260 H      24  UNL24       0.1146
     95 H           3.2700   -1.1250    1.1321 H      24  UNL24       0.1146
     96 H           1.7892   -1.7925    1.0289 H      24  UNL24       0.1146
     97 N           1.9717   -0.5901    4.4017 N.3    25  UNL25      -0.3437
     98 H           2.9785   -0.5014    4.2716 H      25  UNL25       0.1146
     99 H           1.5431   -0.0346    3.6627 H      25  UNL25       0.1146
    100 H           1.7457   -1.5610    4.1902 H      25  UNL25       0.1146
    101 N           2.0494   -1.1183   10.2137 N.3    26  UNL26      -0.3437
    102 H           1.5736   -1.8141    9.6411 H      26  UNL26       0.1146
    103 H           2.6552   -1.6407   10.8450 H      26  UNL26       0.1146
    104 H           2.6700   -0.6126    9.5834 H      26  UNL26       0.1146
    105 N           2.4170   -0.9202   13.2787 N.3    27  UNL27      -0.3437
    106 H           1.8055   -0.2925   13.7987 H      27  UNL27       0.1146
    107 H           2.9049   -0.3380   12.5995 H      27  UNL27       0.1146
    108 H           3.1258   -1.2337   13.9403 H      27  UNL27       0.1146
    109 N           2.0525    1.9328    1.1302 N.3    28  UNL28      -0.3437
    110 H           1.6239    1.6326    0.2559 H      28  UNL28       0.1146
    111 H           2.7764    1.2465    1.3385 H      28  UNL28       0.1146
    112 H           2.5415    2.8016    0.9195 H      28  UNL28       0.1146
    113 N           2.0527    2.5034    4.2123 N.3    29  UNL29      -0.3437
    114 H           1.4256    2.9017    3.5148 H      29  UNL29       0.1146
    115 H           2.6609    1.8596    3.7083 H      29  UNL29       0.1146
    116 H           2.6496    3.2687    4.5229 H      29  UNL29       0.1146
    117 N           2.7545    0.5138    7.2712 N.3    30  UNL30      -0.3437
    118 H           3.1143    0.7844    6.3570 H      30  UNL30       0.1146
    119 H           1.7438    0.6337    7.2221 H      30  UNL30       0.1146
    120 H           2.9147   -0.4894    7.3504 H      30  UNL30       0.1146
    121 N           2.1079    1.9702    9.9415 N.3    31  UNL31      -0.3437
    122 H           1.5477    2.5802   10.5352 H      31  UNL31       0.1146
    123 H           2.5813    2.5816    9.2778 H      31  UNL31       0.1146
    124 H           2.8378    1.5879   10.5411 H      31  UNL31       0.1146
    125 N           2.1817    2.1715   13.0484 N.3    32  UNL32      -0.3437
    126 H           1.6944    1.4844   12.4749 H      32  UNL32       0.1146
    127 H           2.8805    1.6513   13.5770 H      32  UNL32       0.1146
    128 H           2.7016    2.7607   12.3996 H      32  UNL32       0.1146
    129 N           1.8428    5.3878    2.6980 N.3    33  UNL33      -0.3437
    130 H           1.0164    5.7572    2.2301 H      33  UNL33       0.1146
    131 H           2.0971    4.5406    2.1919 H      33  UNL33       0.1146
    132 H           2.5900    6.0570    2.5184 H      33  UNL33       0.1146
    133 N           1.9784    3.7981    7.0313 N.3    34  UNL34      -0.3437
    134 H           1.3006    3.9009    6.2774 H      34  UNL34       0.1146
    135 H           2.6454    3.0955    6.7154 H      34  UNL34       0.1146
    136 H           2.4928    4.6770    7.0682 H      34  UNL34       0.1146
    137 N           2.0210    5.6384    9.4921 N.3    35  UNL35      -0.3437
    138 H           1.2247    5.9934    8.9647 H      35  UNL35       0.1146
    139 H           1.8662    4.6364    9.5941 H      35  UNL35       0.1146
    140 H           2.8297    5.7368    8.8800 H      35  UNL35       0.1146
    141 N           2.0491    6.3453   12.4715 N.3    36  UNL36      -0.3437
    142 H           1.6304    6.4636   13.3929 H      36  UNL36       0.1146
    143 H           2.8695    6.9496   12.4561 H      36  UNL36       0.1146
    144 H           2.4034    5.3902   12.4445 H      36  UNL36       0.1146
    145 N           2.7118    7.1655   -0.8310 N.3    37  UNL37      -0.3437
    146 H           3.1855    6.3709   -1.2582 H      37  UNL37       0.1146
    147 H           1.8469    6.7982   -0.4369 H      37  UNL37       0.1146
    148 H           3.2873    7.4417   -0.0366 H      37  UNL37       0.1146
    149 N           1.7008    8.8686    1.2857 N.3    38  UNL38      -0.3437
    150 H           1.4156    9.3620    2.1304 H      38  UNL38       0.1146
    151 H           2.6212    9.2334    1.0445 H      38  UNL38       0.1146
    152 H           1.8468    7.8989    1.5626 H      38  UNL38       0.1146
    153 N           2.1640    8.0170    4.2522 N.3    39  UNL39      -0.3437
    154 H           2.0498    8.9954    4.5132 H      39  UNL39       0.1146
    155 H           2.8587    8.0045    3.5068 H      39  UNL39       0.1146
    156 H           2.6021    7.5622    5.0520 H      39  UNL39       0.1146
    157 N           2.2738    8.0088    7.6397 N.3    40  UNL40      -0.3437
    158 H           2.1522    7.0906    7.2149 H      40  UNL40       0.1146
    159 H           2.9405    7.8807    8.3997 H      40  UNL40       0.1146
    160 H           2.7491    8.5801    6.9425 H      40  UNL40       0.1146
    161 N           2.0860    8.8853   10.6561 N.3    41  UNL41      -0.3437
    162 H           1.6057    8.7900   11.5497 H      41  UNL41       0.1146
    163 H           2.7124    9.6826   10.7574 H      41  UNL41       0.1146
    164 H           2.6858    8.0659   10.5708 H      41  UNL41       0.1146
    165 N           2.2859    8.9136   14.1088 N.3    42  UNL42      -0.3437
    166 H           1.7816    9.1885   14.9505 H      42  UNL42       0.1146
    167 H           2.9929    9.6317   13.9577 H      42  UNL42       0.1146
    168 H           2.7950    8.0648   14.3510 H      42  UNL42       0.1146
    169 N           2.2988   11.7714    0.3400 N.3    43  UNL43      -0.3437
    170 H           2.4291   10.9766   -0.2843 H      43  UNL43       0.1146
    171 H           2.4326   11.4119    1.2841 H      43  UNL43       0.1146
    172 H           3.0830   12.3980    0.1644 H      43  UNL43       0.1146
    173 N           2.1617   11.7516    3.8855 N.3    44  UNL44      -0.3437
    174 H           3.0409   11.6163    3.3884 H      44  UNL44       0.1146
    175 H           1.7231   12.5687    3.4631 H      44  UNL44       0.1146
    176 H           1.5736   10.9574    3.6372 H      44  UNL44       0.1146
    177 N           2.6559   11.1496    6.8324 N.3    45  UNL45      -0.3437
    178 H           3.3427   11.5720    6.2092 H      45  UNL45       0.1146
    179 H           2.0528   11.9102    7.1424 H      45  UNL45       0.1146
    180 H           2.0751   10.5517    6.2463 H      45  UNL45       0.1146
    181 N           1.9121   12.1217    9.7156 N.3    46  UNL46      -0.3437
    182 H           1.2599   12.0746   10.4972 H      46  UNL46       0.1146
    183 H           2.8276   12.3042   10.1243 H      46  UNL46       0.1146
    184 H           1.9588   11.1790    9.3316 H      46  UNL46       0.1146
    185 N           2.4597   12.0505   13.0264 N.3    47  UNL47      -0.3437
    186 H           2.5910   11.5210   12.1657 H      47  UNL47       0.1146
    187 H           1.9131   12.8716   12.7704 H      47  UNL47       0.1146
    188 H           1.8534   11.4822   13.6161 H      47  UNL47       0.1146
    189 N           1.5414   15.6646    1.4850 N.3    48  UNL48      -0.3437
    190 H           1.0105   15.8891    2.3253 H      48  UNL48       0.1146
    191 H           2.1097   16.4862    1.2839 H      48  UNL48       0.1146
    192 H           2.1947   14.9301    1.7533 H      48  UNL48       0.1146
    193 N           2.2511   14.7058    4.9385 N.3    49  UNL49      -0.3437
    194 H           2.0527   14.8272    3.9464 H      49  UNL49       0.1146
    195 H           2.9916   14.0080    4.9935 H      49  UNL49       0.1146
    196 H           2.6672   15.5819    5.2510 H      49  UNL49       0.1146
    197 N           2.1859   15.1116    8.0684 N.3    50  UNL50      -0.3437
    198 H           1.5272   14.5829    7.4984 H      50  UNL50       0.1146
    199 H           2.8539   14.4318    8.4291 H      50  UNL50       0.1146
    200 H           2.7072   15.7013    7.4211 H      50  UNL50       0.1146
    201 N           2.3341   15.1137   11.1654 N.3    51  UNL51      -0.3437
    202 H           1.9091   15.2892   12.0748 H      51  UNL51       0.1146
    203 H           3.1016   15.7786   11.0810 H      51  UNL51       0.1146
    204 H           2.7660   14.1930   11.2302 H      51  UNL51       0.1146
    205 N           2.1627   14.6830   14.6388 N.3    52  UNL52      -0.3437
    206 H           2.0323   15.6931   14.6691 H      52  UNL52       0.1146
    207 H           2.8476   14.5101   13.9043 H      52  UNL52       0.1146
    208 H           2.6203   14.4324   15.5141 H      52  UNL52       0.1146
    209 N           0.9873   18.4648    0.3477 N.3    53  UNL53      -0.3437
    210 H           0.1089   18.9473    0.1637 H      53  UNL53       0.1146
    211 H           0.9655   17.6166   -0.2167 H      53  UNL53       0.1146
    212 H           1.7186   19.0502   -0.0534 H      53  UNL53       0.1146
    213 N           2.1281   17.8923    3.6138 N.3    54  UNL54      -0.3437
    214 H           2.5072   16.9494    3.5389 H      54  UNL54       0.1146
    215 H           2.7675   18.4048    4.2195 H      54  UNL54       0.1146
    216 H           2.2240   18.3079    2.6884 H      54  UNL54       0.1146
    217 N           1.8023   18.0787    6.6810 N.3    55  UNL55      -0.3437
    218 H           1.0294   18.0929    6.0171 H      55  UNL55       0.1146
    219 H           2.5474   17.5468    6.2334 H      55  UNL55       0.1146
    220 H           2.1392   19.0386    6.7403 H      55  UNL55       0.1146
    221 N           2.0498   18.3369    9.7608 N.3    56  UNL56      -0.3437
    222 H           1.3433   18.2951   10.4939 H      56  UNL56       0.1146
    223 H           2.7588   18.9902   10.0908 H      56  UNL56       0.1146
    224 H           2.4961   17.4209    9.7482 H      56  UNL56       0.1146
    225 N           2.0313   18.1004   13.0448 N.3    57  UNL57      -0.3437
    226 H           1.5015   17.3982   12.5304 H      57  UNL57       0.1146
    227 H           2.7268   17.5876   13.5849 H      57  UNL57       0.1146
    228 H           2.5518   18.6278   12.3454 H      57  UNL57       0.1146
    229 N           1.9083   21.2723    2.0930 N.3    58  UNL58      -0.3437
    230 H           1.2965   20.8871    1.3749 H      58  UNL58       0.1146
    231 H           2.4416   20.4851    2.4595 H      58  UNL58       0.1146
    232 H           2.5793   21.8624    1.6033 H      58  UNL58       0.1146
    233 N           2.0662   21.1887    5.1907 N.3    59  UNL59      -0.3437
    234 H           1.8879   20.3877    4.5866 H      59  UNL59       0.1146
    235 H           2.8252   20.9096    5.8107 H      59  UNL59       0.1146
    236 H           2.4490   21.9155    4.5877 H      59  UNL59       0.1146
    237 N           2.0851   21.4247    8.2384 N.3    60  UNL60      -0.3437
    238 H           1.6502   22.0396    8.9247 H      60  UNL60       0.1146
    239 H           2.7652   21.9968    7.7397 H      60  UNL60       0.1146
    240 H           2.6266   20.7463    8.7723 H      60  UNL60       0.1146
    241 N           1.9109   21.2677   11.4462 N.3    61  UNL61      -0.3437
    242 H           1.5061   20.7349   10.6776 H      61  UNL61       0.1146
    243 H           2.7260   20.7399   11.7551 H      61  UNL61       0.1146
    244 H           2.2723   22.1263   11.0331 H      61  UNL61       0.1146
    245 N           2.0238   21.0107   14.7276 N.3    62  UNL62      -0.3437
    246 H           2.5749   21.2282   13.8986 H      62  UNL62       0.1146
    247 H           2.6947   20.8667   15.4810 H      62  UNL62       0.1146
    248 H           1.5186   21.8644   14.9609 H      62  UNL62       0.1146
    249 N           1.9881   24.3588   -0.1690 N.3    63  UNL63      -0.3437
    250 H           1.4469   23.8806   -0.8878 H      63  UNL63       0.1146
    251 H           2.5297   23.6358    0.3024 H      63  UNL63       0.1146
    252 H           2.6643   24.9376   -0.6651 H      63  UNL63       0.1146
    253 N           2.3331   24.4014    2.9106 N.3    64  UNL64      -0.3437
    254 H           1.7536   23.7577    2.3738 H      64  UNL64       0.1146
    255 H           2.8500   23.8268    3.5748 H      64  UNL64       0.1146
    256 H           3.0249   24.7674    2.2581 H      64  UNL64       0.1146
    257 N           1.9174   25.1743    6.1269 N.3    65  UNL65      -0.3437
    258 H           2.0276   26.0412    6.6511 H      65  UNL65       0.1146
    259 H           2.6406   25.1863    5.4091 H      65  UNL65       0.1146
    260 H           2.1707   24.4241    6.7683 H      65  UNL65       0.1146
    261 N           2.0481   24.6616   12.8198 N.3    66  UNL66      -0.3437
    262 H           1.2932   25.3349   12.6966 H      66  UNL66       0.1146
    263 H           2.5556   24.6440   11.9363 H      66  UNL66       0.1146
    264 H           2.6841   25.0743   13.5007 H      66  UNL66       0.1146
    265 N           5.1380   -0.9677   -1.0862 N.3    67  UNL67      -0.3437
    266 H           5.1105   -1.0977   -0.0759 H      67  UNL67       0.1146
    267 H           6.1059   -0.7455   -1.3146 H      67  UNL67       0.1146
    268 H           4.9570   -1.8846   -1.4924 H      67  UNL67       0.1146
    269 N           5.1625   -1.1699    2.9319 N.3    68  UNL68      -0.3437
    270 H           5.3690   -0.2484    3.3148 H      68  UNL68       0.1146
    271 H           5.6671   -1.2265    2.0484 H      68  UNL68       0.1146
    272 H           5.6111   -1.8398    3.5550 H      68  UNL68       0.1146
    273 N           5.3814   -0.4927    5.9505 N.3    69  UNL69      -0.3437
    274 H           5.0211   -1.3676    5.5722 H      69  UNL69       0.1146
    275 H           5.6787   -0.6997    6.9029 H      69  UNL69       0.1146
    276 H           6.2328   -0.2905    5.4283 H      69  UNL69       0.1146
    277 N           5.5104   -0.6836   12.9226 N.3    70  UNL70      -0.3437
    278 H           6.1875   -0.4143   13.6348 H      70  UNL70       0.1146
    279 H           5.5985    0.0050   12.1766 H      70  UNL70       0.1146
    280 H           5.8466   -1.5635   12.5337 H      70  UNL70       0.1146
    281 N           5.2037    1.8363    0.1242 N.3    71  UNL71      -0.3437
    282 H           5.2341    2.1830   -0.8335 H      71  UNL71       0.1146
    283 H           5.9343    1.1289    0.1901 H      71  UNL71       0.1146
    284 H           5.5083    2.6102    0.7130 H      71  UNL71       0.1146
    285 N           5.1800    2.5961    3.3426 N.3    72  UNL72      -0.3437
    286 H           5.9092    1.8845    3.3283 H      72  UNL72       0.1146
    287 H           4.5057    2.3216    2.6295 H      72  UNL72       0.1146
    288 H           4.7021    2.4907    4.2363 H      72  UNL72       0.1146
    289 N           5.1117    2.4571    6.8626 N.3    73  UNL73      -0.3437
    290 H           4.6960    3.1049    7.5303 H      73  UNL73       0.1146
    291 H           5.9651    2.9046    6.5311 H      73  UNL73       0.1146
    292 H           5.4114    1.6483    7.4052 H      73  UNL73       0.1146
    293 N           5.4398    1.6112   10.0185 N.3    74  UNL74      -0.3437
    294 H           4.7041    2.0309    9.4519 H      74  UNL74       0.1146
    295 H           5.8903    0.9166    9.4243 H      74  UNL74       0.1146
    296 H           6.1318    2.3442   10.1678 H      74  UNL74       0.1146
    297 N           5.4169    2.4707   13.1467 N.3    75  UNL75      -0.3437
    298 H           4.7686    2.0130   12.5074 H      75  UNL75       0.1146
    299 H           6.1179    1.7705   13.3849 H      75  UNL75       0.1146
    300 H           5.9020    3.1777   12.5961 H      75  UNL75       0.1146
    301 N           4.2064    4.8731    0.6516 N.3    76  UNL76      -0.3437
    302 H           4.1300    4.2073    1.4192 H      76  UNL76       0.1146
    303 H           4.2269    5.7967    1.0817 H      76  UNL76       0.1146
    304 H           5.1311    4.7309    0.2476 H      76  UNL76       0.1146
    305 N           5.2503    5.6516    3.5480 N.3    77  UNL77      -0.3437
    306 H           4.3890    5.1324    3.3834 H      77  UNL77       0.1146
    307 H           5.8109    5.0746    4.1734 H      77  UNL77       0.1146
    308 H           5.7456    5.6634    2.6575 H      77  UNL77       0.1146
    309 N           4.5535    6.2261    6.5015 N.3    78  UNL78      -0.3437
    310 H           3.9009    5.8325    5.8251 H      78  UNL78       0.1146
    311 H           4.4206    5.6956    7.3614 H      78  UNL78       0.1146
    312 H           5.4851    5.9868    6.1650 H      78  UNL78       0.1146
    313 N           5.0384    4.6589    9.7078 N.3    79  UNL79      -0.3437
    314 H           5.1218    4.2340   10.6302 H      79  UNL79       0.1146
    315 H           5.2676    5.6442    9.8306 H      79  UNL79       0.1146
    316 H           5.7918    4.2632    9.1472 H      79  UNL79       0.1146
    317 N           5.1599    5.6833   12.8389 N.3    80  UNL80      -0.3437
    318 H           4.5392    4.9047   12.6224 H      80  UNL80       0.1146
    319 H           5.8474    5.3198   13.4974 H      80  UNL80       0.1146
    320 H           5.6713    5.8820   11.9802 H      80  UNL80       0.1146
    321 N           5.3427    8.1685    1.4714 N.3    81  UNL81      -0.3437
    322 H           4.6428    8.7546    1.9242 H      81  UNL81       0.1146
    323 H           5.9540    8.8043    0.9610 H      81  UNL81       0.1146
    324 H           5.9093    7.7766    2.2223 H      81  UNL81       0.1146
    325 N           5.1698    8.8120    4.5229 N.3    82  UNL82      -0.3437
    326 H           4.8987    9.5919    5.1200 H      82  UNL82       0.1146
    327 H           5.8754    9.1783    3.8854 H      82  UNL82       0.1146
    328 H           5.6544    8.1504    5.1278 H      82  UNL82       0.1146
    329 N           5.2762    8.8819    7.6480 N.3    83  UNL83      -0.3437
    330 H           5.1953    9.5681    8.3970 H      83  UNL83       0.1146
    331 H           5.9786    9.2476    7.0067 H      83  UNL83       0.1146
    332 H           5.6877    8.0513    8.0712 H      83  UNL83       0.1146
    333 N           5.2078    8.7821   10.9266 N.3    84  UNL84      -0.3437
    334 H           4.9775    7.9394   11.4513 H      84  UNL84       0.1146
    335 H           5.7187    9.3836   11.5713 H      84  UNL84       0.1146
    336 H           5.8805    8.4959   10.2168 H      84  UNL84       0.1146
    337 N           5.3821    8.4919   14.0113 N.3    85  UNL85      -0.3437
    338 H           4.8492    8.8552   14.8002 H      85  UNL85       0.1146
    339 H           6.0666    9.2105   13.7800 H      85  UNL85       0.1146
    340 H           5.9151    7.7021   14.3723 H      85  UNL85       0.1146
    341 N           5.0487   11.2703    1.6806 N.3    86  UNL86      -0.3437
    342 H           5.1276   10.7755    2.5679 H      86  UNL86       0.1146
    343 H           4.4476   12.0735    1.8594 H      86  UNL86       0.1146
    344 H           5.9744   11.6499    1.4875 H      86  UNL86       0.1146
    345 N           5.6301   12.1015    4.8062 N.3    87  UNL87      -0.3437
    346 H           5.0133   12.3983    4.0513 H      87  UNL87       0.1146
    347 H           6.1328   11.2877    4.4547 H      87  UNL87       0.1146
    348 H           6.3258   12.8392    4.9071 H      87  UNL87       0.1146
    349 N           5.1059   12.1904    8.0937 N.3    88  UNL88      -0.3437
    350 H           4.4720   11.7634    8.7678 H      88  UNL88       0.1146
    351 H           6.0075   12.2632    8.5631 H      88  UNL88       0.1146
    352 H           5.2305   11.5037    7.3513 H      88  UNL88       0.1146
    353 N           5.2034   11.9575   11.1834 N.3    89  UNL89      -0.3437
    354 H           5.7074   11.3477   10.5412 H      89  UNL89       0.1146
    355 H           4.7634   11.3433   11.8671 H      89  UNL89       0.1146
    356 H           5.9155   12.4796   11.6921 H      89  UNL89       0.1146
    357 N           5.2556   11.4369   14.9775 N.3    90  UNL90      -0.3437
    358 H           5.8369   12.2635   14.8465 H      90  UNL90       0.1146
    359 H           5.0035   11.1199   14.0424 H      90  UNL90       0.1146
    360 H           5.8696   10.7198   15.3611 H      90  UNL90       0.1146
    361 N           4.7673   14.5811    1.2225 N.3    91  UNL91      -0.3437
    362 H           5.3424   14.1094    0.5260 H      91  UNL91       0.1146
    363 H           5.0289   14.1791    2.1216 H      91  UNL91       0.1146
    364 H           5.0880   15.5481    1.2432 H      91  UNL91       0.1146
    365 N           5.1620   15.5471    4.3429 N.3    92  UNL92      -0.3437
    366 H           4.8654   15.5231    5.3175 H      92  UNL92       0.1146
    367 H           5.5405   16.4803    4.1874 H      92  UNL92       0.1146
    368 H           5.9529   14.9082    4.2741 H      92  UNL92       0.1146
    369 N           5.2782   15.3553    7.9620 N.3    93  UNL93      -0.3437
    370 H           5.1629   15.0085    8.9132 H      93  UNL93       0.1146
    371 H           4.7582   14.7143    7.3644 H      93  UNL93       0.1146
    372 H           4.7785   16.2426    7.9239 H      93  UNL93       0.1146
    373 N           5.3680   15.0274   12.0963 N.3    94  UNL94      -0.3437
    374 H           4.5255   14.6058   12.4847 H      94  UNL94       0.1146
    375 H           5.5107   14.5853   11.1893 H      94  UNL94       0.1146
    376 H           5.1314   15.9991   11.9009 H      94  UNL94       0.1146
    377 N           5.1721   18.6704   -0.4595 N.3    95  UNL95      -0.3437
    378 H           4.5171   18.9647   -1.1825 H      95  UNL95       0.1146
    379 H           5.6906   17.8861   -0.8527 H      95  UNL95       0.1146
    380 H           5.8437   19.4306   -0.3627 H      95  UNL95       0.1146
    381 N           4.8686   18.1744    2.5140 N.3    96  UNL96      -0.3437
    382 H           4.8437   18.4538    3.4937 H      96  UNL96       0.1146
    383 H           4.4114   17.2648    2.4697 H      96  UNL96       0.1146
    384 H           4.2545   18.8216    2.0217 H      96  UNL96       0.1146
    385 N           5.1498   18.1651    6.1604 N.3    97  UNL97      -0.3437
    386 H           4.8061   18.3610    7.0995 H      97  UNL97       0.1146
    387 H           5.8134   18.9074    5.9435 H      97  UNL97       0.1146
    388 H           5.6993   17.3102    6.2350 H      97  UNL97       0.1146
    389 N           5.1003   17.8377   10.0113 N.3    98  UNL98      -0.3437
    390 H           4.6261   16.9359    9.9966 H      98  UNL98       0.1146
    391 H           5.8366   17.7565   10.7111 H      98  UNL98       0.1146
    392 H           5.5746   17.9203    9.1131 H      98  UNL98       0.1146
    393 N           5.3036   18.1946   13.3633 N.3    99  UNL99      -0.3437
    394 H           4.6455   18.0265   12.6037 H      99  UNL99       0.1146
    395 H           6.0060   17.4597   13.2942 H      99  UNL99       0.1146
    396 H           5.7828   19.0638   13.1325 H      99  UNL99       0.1146
    397 N           5.2616   21.2127    1.5102 N.3   100  UNL100     -0.3437
    398 H           4.7517   21.9904    1.9269 H     100  UNL100      0.1146
    399 H           6.0481   21.6272    1.0121 H     100  UNL100      0.1146
    400 H           5.6647   20.6923    2.2881 H     100  UNL100      0.1146
    401 N           5.0858   21.6739    4.5363 N.3   101  UNL101     -0.3437
    402 H           4.5439   22.0713    5.3023 H     101  UNL101      0.1146
    403 H           5.8580   22.3188    4.3744 H     101  UNL101      0.1146
    404 H           5.5048   20.8201    4.9019 H     101  UNL101      0.1146
    405 N           5.1414   20.9588    7.4884 N.3   102  UNL102     -0.3437
    406 H           4.7302   21.2389    8.3777 H     102  UNL102      0.1146
    407 H           5.6944   21.7541    7.1719 H     102  UNL102      0.1146
    408 H           5.8099   20.2217    7.7078 H     102  UNL102      0.1146
    409 N           5.1927   21.2414   10.9960 N.3   103  UNL103     -0.3437
    410 H           5.8850   21.6808   10.3910 H     103  UNL103      0.1146
    411 H           4.4615   21.9369   11.1375 H     103  UNL103      0.1146
    412 H           4.7691   20.4971   10.4438 H     103  UNL103      0.1146
    413 N           5.1390   21.3434   14.5760 N.3   104  UNL104     -0.3437
    414 H           4.4396   22.0738   14.7015 H     104  UNL104      0.1146
    415 H           5.8890   21.7636   14.0289 H     104  UNL104      0.1146
    416 H           5.5303   21.1674   15.5003 H     104  UNL104      0.1146
    417 N           4.9926   24.4687    0.5228 N.3   105  UNL105     -0.3437
    418 H           4.6132   24.0152   -0.3071 H     105  UNL105      0.1146
    419 H           5.6005   23.7810    0.9656 H     105  UNL105      0.1146
    420 H           5.6058   25.2083    0.1833 H     105  UNL105      0.1146
    421 N           5.3463   24.7614    3.5440 N.3   106  UNL106     -0.3437
    422 H           4.9991   23.9066    3.1115 H     106  UNL106      0.1146
    423 H           6.0622   24.4696    4.2078 H     106  UNL106      0.1146
    424 H           5.8355   25.2696    2.8087 H     106  UNL106      0.1146
    425 N           4.7955   24.1762    6.5741 N.3   107  UNL107     -0.3437
    426 H           4.2853   23.4399    7.0597 H     107  UNL107      0.1146
    427 H           5.0708   24.8466    7.2905 H     107  UNL107      0.1146
    428 H           5.6591   23.7482    6.2433 H     107  UNL107      0.1146
    429 N           5.1077   24.1323    9.8031 N.3   108  UNL108     -0.3437
    430 H           4.7761   23.2767    9.3599 H     108  UNL108      0.1146
    431 H           5.4513   23.8576   10.7223 H     108  UNL108      0.1146
    432 H           5.9274   24.4239    9.2726 H     108  UNL108      0.1146
    433 N           5.1525   24.2512   13.5081 N.3   109  UNL109     -0.3437
    434 H           4.9776   23.4341   12.9250 H     109  UNL109      0.1146
    435 H           5.8690   23.9711   14.1764 H     109  UNL109      0.1146
    436 H           5.5903   24.9418   12.9000 H     109  UNL109      0.1146
    437 N           8.1875   -0.7368    0.5962 N.3   110  UNL110     -0.3437
    438 H           8.5285   -0.5333   -0.3423 H     110  UNL110      0.1146
    439 H           7.1729   -0.6547    0.5503 H     110  UNL110      0.1146
    440 H           8.3823   -1.7239    0.7578 H     110  UNL110      0.1146
    441 N           7.9962   -0.3457    3.6467 N.3   111  UNL111     -0.3437
    442 H           8.2664   -0.1331    4.6060 H     111  UNL111      0.1146
    443 H           8.8469   -0.2669    3.0913 H     111  UNL111      0.1146
    444 H           7.7456   -1.3333    3.6379 H     111  UNL111      0.1146
    445 N           8.2915   -1.1178    7.0460 N.3   112  UNL112     -0.3437
    446 H           8.8677   -1.8413    7.4738 H     112  UNL112      0.1146
    447 H           8.9402   -0.4253    6.6744 H     112  UNL112      0.1146
    448 H           7.8505   -1.5522    6.2365 H     112  UNL112      0.1146
    449 N           8.3526   -0.4462   10.0915 N.3   113  UNL113     -0.3437
    450 H           7.6112   -0.9559    9.6130 H     113  UNL113      0.1146
    451 H           8.9582   -1.1538   10.5049 H     113  UNL113      0.1146
    452 H           8.9028    0.0017    9.3600 H     113  UNL113      0.1146
    453 N           8.3072    2.2842    2.0227 N.3   114  UNL114     -0.3437
    454 H           7.3808    2.0098    1.6986 H     114  UNL114      0.1146
    455 H           8.9196    1.4943    1.8240 H     114  UNL114      0.1146
    456 H           8.6095    3.0362    1.4052 H     114  UNL114      0.1146
    457 N           8.2223    2.6423    5.1141 N.3   115  UNL115     -0.3437
    458 H           7.5019    2.9406    4.4580 H     115  UNL115      0.1146
    459 H           8.8126    1.9866    4.6041 H     115  UNL115      0.1146
    460 H           8.8003    3.4631    5.2888 H     115  UNL115      0.1146
    461 N           7.8922    2.1482    8.1946 N.3   116  UNL116     -0.3437
    462 H           8.0778    2.0340    9.1900 H     116  UNL116      0.1146
    463 H           8.2905    3.0499    7.9363 H     116  UNL116      0.1146
    464 H           8.4578    1.4453    7.7210 H     116  UNL116      0.1146
    465 N           8.2529    2.5433   11.7836 N.3   117  UNL117     -0.3437
    466 H           8.0349    2.6391   12.7744 H     117  UNL117      0.1146
    467 H           8.7926    3.3707   11.5335 H     117  UNL117      0.1146
    468 H           8.8962    1.7562   11.7124 H     117  UNL117      0.1146
    469 N           8.3588    5.2551   -0.0098 N.3   118  UNL118     -0.3437
    470 H           7.7537    4.9557    0.7535 H     118  UNL118      0.1146
    471 H           9.0103    5.9261    0.3949 H     118  UNL118      0.1146
    472 H           8.9160    4.4403   -0.2627 H     118  UNL118      0.1146
    473 N           8.3240    5.2034    3.3479 N.3   119  UNL119     -0.3437
    474 H           8.5844    5.8043    2.5672 H     119  UNL119      0.1146
    475 H           7.8628    5.8080    4.0261 H     119  UNL119      0.1146
    476 H           7.6021    4.5782    2.9924 H     119  UNL119      0.1146
    477 N           8.3474    5.7293    6.5850 N.3   120  UNL120     -0.3437
    478 H           9.0451    5.5620    5.8614 H     120  UNL120      0.1146
    479 H           7.6570    6.3537    6.1706 H     120  UNL120      0.1146
    480 H           7.8716    4.8395    6.7274 H     120  UNL120      0.1146
    481 N           8.2624    5.0996    9.6158 N.3   121  UNL121     -0.3437
    482 H           7.5999    4.7588   10.3110 H     121  UNL121      0.1146
    483 H           8.6195    5.9828    9.9774 H     121  UNL121      0.1146
    484 H           9.0478    4.4505    9.6345 H     121  UNL121      0.1146
    485 N           8.7335    5.7295   12.8699 N.3   122  UNL122     -0.3437
    486 H           7.7937    5.5747   12.5078 H     122  UNL122      0.1146
    487 H           9.0741    4.8161   13.1668 H     122  UNL122      0.1146
    488 H           9.3034    5.9946   12.0679 H     122  UNL122      0.1146
    489 N           8.4587    8.3392    1.7628 N.3   123  UNL123     -0.3437
    490 H           8.6836    8.9378    0.9694 H     123  UNL123      0.1146
    491 H           7.8117    8.8722    2.3422 H     123  UNL123      0.1146
    492 H           7.9207    7.5611    1.3840 H     123  UNL123      0.1146
    493 N           8.2508    8.6424    4.9305 N.3   124  UNL124     -0.3437
    494 H           7.7146    7.9742    4.3788 H     124  UNL124      0.1146
    495 H           8.8848    8.0881    5.5044 H     124  UNL124      0.1146
    496 H           8.8392    9.1457    4.2680 H     124  UNL124      0.1146
    497 N           8.4279    8.6861    8.0440 N.3   125  UNL125     -0.3437
    498 H           7.8022    8.1245    7.4682 H     125  UNL125      0.1146
    499 H           9.1585    8.0525    8.3652 H     125  UNL125      0.1146
    500 H           8.8828    9.3402    7.4088 H     125  UNL125      0.1146
    501 N           8.2744    8.6352   11.3471 N.3   126  UNL126     -0.3437
    502 H           7.9849    7.9917   10.6120 H     126  UNL126      0.1146
    503 H           9.0247    8.1656   11.8520 H     126  UNL126      0.1146
    504 H           8.7073    9.4267   10.8732 H     126  UNL126      0.1146
    505 N           8.4752    8.3837   14.4351 N.3   127  UNL127     -0.3437
    506 H           7.7570    8.6906   15.0895 H     127  UNL127      0.1146
    507 H           9.1847    9.1152   14.4332 H     127  UNL127      0.1146
    508 H           8.9136    7.5684   14.8612 H     127  UNL127      0.1146
    509 N           8.3748   11.4520    2.5699 N.3   128  UNL128     -0.3437
    510 H           9.1723   11.7483    3.1307 H     128  UNL128      0.1146
    511 H           7.9386   12.3072    2.2281 H     128  UNL128      0.1146
    512 H           8.7645   10.9886    1.7502 H     128  UNL128      0.1146
    513 N           8.2614   11.6565    6.2703 N.3   129  UNL129     -0.3437
    514 H           7.6789   10.8217    6.3153 H     129  UNL129      0.1146
    515 H           9.1602   11.3939    6.6722 H     129  UNL129      0.1146
    516 H           8.4349   11.8250    5.2804 H     129  UNL129      0.1146
    517 N           8.1950   11.7555    9.7170 N.3   130  UNL130     -0.3437
    518 H           7.8128   10.8521    9.4411 H     130  UNL130      0.1146
    519 H           9.0555   11.5533   10.2241 H     130  UNL130      0.1146
    520 H           8.4794   12.2158    8.8535 H     130  UNL130      0.1146
    521 N           8.2525   11.9559   12.7988 N.3   131  UNL131     -0.3437
    522 H           7.3470   11.9142   13.2641 H     131  UNL131      0.1146
    523 H           8.9513   11.8767   13.5363 H     131  UNL131      0.1146
    524 H           8.3258   11.1007   12.2495 H     131  UNL131      0.1146
    525 N           8.3017   15.0102   -1.0598 N.3   132  UNL132     -0.3437
    526 H           7.9117   15.9429   -1.1878 H     132  UNL132      0.1146
    527 H           8.2665   14.8261   -0.0582 H     132  UNL132      0.1146
    528 H           7.6371   14.3668   -1.4871 H     132  UNL132      0.1146
    529 N           7.5337   15.4618    2.2421 N.3   133  UNL133     -0.3437
    530 H           7.4500   16.0235    3.0882 H     133  UNL133      0.1146
    531 H           8.5329   15.3372    2.0854 H     133  UNL133      0.1146
    532 H           7.1696   14.5402    2.4796 H     133  UNL133      0.1146
    533 N           8.4973   14.4401    4.8472 N.3   134  UNL134     -0.3437
    534 H           8.2322   13.6910    4.2093 H     134  UNL134      0.1146
    535 H           9.0987   14.0115    5.5494 H     134  UNL134      0.1146
    536 H           9.0949   15.0674    4.3108 H     134  UNL134      0.1146
    537 N           8.3376   14.7546    7.9716 N.3   135  UNL135     -0.3437
    538 H           7.9612   13.9764    7.4321 H     135  UNL135      0.1146
    539 H           8.9918   14.3448    8.6369 H     135  UNL135      0.1146
    540 H           8.9025   15.2996    7.3218 H     135  UNL135      0.1146
    541 N           8.1914   15.0540   11.0592 N.3   136  UNL136     -0.3437
    542 H           7.9131   14.2164   10.5500 H     136  UNL136      0.1146
    543 H           8.9407   14.7653   11.6867 H     136  UNL136      0.1146
    544 H           8.6227   15.6703   10.3718 H     136  UNL136      0.1146
    545 N           8.1544   15.2228   14.1510 N.3   137  UNL137     -0.3437
    546 H           7.8266   14.4572   13.5638 H     137  UNL137      0.1146
    547 H           8.9736   14.8686   14.6428 H     137  UNL137      0.1146
    548 H           8.4980   15.9390   13.5127 H     137  UNL137      0.1146
    549 N           8.2521   18.3317   -0.2558 N.3   138  UNL138     -0.3437
    550 H           7.8761   19.0283    0.3859 H     138  UNL138      0.1146
    551 H           9.1894   18.6498   -0.4979 H     138  UNL138      0.1146
    552 H           8.3769   17.4824    0.2933 H     138  UNL138      0.1146
    553 N           8.7807   18.3019    2.7799 N.3   139  UNL139     -0.3437
    554 H           7.8866   18.0543    2.3583 H     139  UNL139      0.1146
    555 H           8.5693   18.9855    3.5055 H     139  UNL139      0.1146
    556 H           9.1026   17.4664    3.2665 H     139  UNL139      0.1146
    557 N           8.3160   17.7067    6.3760 N.3   140  UNL140     -0.3437
    558 H           7.8445   16.8319    6.1507 H     140  UNL140      0.1146
    559 H           9.1333   17.4510    6.9284 H     140  UNL140      0.1146
    560 H           8.6753   18.0676    5.4934 H     140  UNL140      0.1146
    561 N           8.3534   18.2254    9.7473 N.3   141  UNL141     -0.3437
    562 H           7.6854   17.4813    9.5508 H     141  UNL141      0.1146
    563 H           9.0259   17.8328   10.4045 H     141  UNL141      0.1146
    564 H           8.8654   18.3794    8.8799 H     141  UNL141      0.1146
    565 N           8.3642   18.5151   12.8780 N.3   142  UNL142     -0.3437
    566 H           7.9753   17.7335   12.3524 H     142  UNL142      0.1146
    567 H           8.8584   18.1037   13.6686 H     142  UNL142      0.1146
    568 H           9.0811   18.9257   12.2815 H     142  UNL142      0.1146
    569 N           8.7276   21.6279    1.9107 N.3   143  UNL143     -0.3437
    570 H           7.8084   21.9027    2.2543 H     143  UNL143      0.1146
    571 H           9.3351   22.4324    2.0598 H     143  UNL143      0.1146
    572 H           9.0599   20.9036    2.5459 H     143  UNL143      0.1146
    573 N           8.1024   21.1181    5.0058 N.3   144  UNL144     -0.3437
    574 H           7.5806   20.8474    4.1735 H     144  UNL144      0.1146
    575 H           8.4985   20.2576    5.3813 H     144  UNL144      0.1146
    576 H           8.8926   21.6699    4.6748 H     144  UNL144      0.1146
    577 N           8.3259   20.8714    8.1310 N.3   145  UNL145     -0.3437
    578 H           8.4885   21.6752    7.5261 H     145  UNL145      0.1146
    579 H           7.5293   21.1174    8.7170 H     145  UNL145      0.1146
    580 H           8.0046   20.1212    7.5209 H     145  UNL145      0.1146
    581 N           8.3651   21.2322   11.2098 N.3   146  UNL146     -0.3437
    582 H           7.7050   20.5500   10.8394 H     146  UNL146      0.1146
    583 H           9.2839   20.7956   11.1491 H     146  UNL146      0.1146
    584 H           8.3759   22.0030   10.5433 H     146  UNL146      0.1146
    585 N           8.3911   21.3999   14.7477 N.3   147  UNL147     -0.3437
    586 H           8.0751   21.6472   13.8111 H     147  UNL147      0.1146
    587 H           7.6533   21.7022   15.3822 H     147  UNL147      0.1146
    588 H           8.3927   20.3815   14.7837 H     147  UNL147      0.1146
    589 N           8.2763   24.6942    0.3198 N.3   148  UNL148     -0.3437
    590 H           7.4896   24.1894   -0.0858 H     148  UNL148      0.1146
    591 H           8.9764   23.9889    0.5454 H     148  UNL148      0.1146
    592 H           8.6723   25.2513   -0.4360 H     148  UNL148      0.1146
    593 N           8.6962   24.4637    3.6306 N.3   149  UNL149     -0.3437
    594 H           8.2967   23.5266    3.6559 H     149  UNL149      0.1146
    595 H           9.3680   24.5034    4.3958 H     149  UNL149      0.1146
    596 H           9.2442   24.5124    2.7730 H     149  UNL149      0.1146
    597 N           7.9712   25.0036    6.5961 N.3   150  UNL150     -0.3437
    598 H           7.2638   24.8134    7.3044 H     150  UNL150      0.1146
    599 H           8.7872   25.3485    7.0996 H     150  UNL150      0.1146
    600 H           8.2385   24.0970    6.2154 H     150  UNL150      0.1146
    601 N           8.5567   24.4160    9.6004 N.3   151  UNL151     -0.3437
    602 H           8.5447   23.8073    8.7833 H     151  UNL151      0.1146
    603 H           9.2320   24.0076   10.2451 H     151  UNL151      0.1146
    604 H           8.9634   25.2968    9.2885 H     151  UNL151      0.1146
    605 N           8.1970   24.4708   12.8400 N.3   152  UNL152     -0.3437
    606 H           7.4866   24.0547   12.2396 H     152  UNL152      0.1146
    607 H           8.6866   23.6916   13.2776 H     152  UNL152      0.1146
    608 H           8.8710   24.9103   12.2147 H     152  UNL152      0.1146
    609 N          11.1559   -0.8310   -0.2105 N.3   153  UNL153     -0.3437
    610 H          10.4807   -1.5559   -0.4491 H     153  UNL153      0.1146
    611 H          11.9329   -1.3093    0.2432 H     153  UNL153      0.1146
    612 H          11.5192   -0.4829   -1.0966 H     153  UNL153      0.1146
    613 N          11.3771   -0.8391    2.8610 N.3   154  UNL154     -0.3437
    614 H          10.9395   -0.4307    3.6856 H     154  UNL154      0.1146
    615 H          11.9081   -0.0874    2.4234 H     154  UNL154      0.1146
    616 H          12.0664   -1.5040    3.2090 H     154  UNL154      0.1146
    617 N          11.6835   -0.7009    6.1782 N.3   155  UNL155     -0.3437
    618 H          10.9426   -1.2939    6.5493 H     155  UNL155      0.1146
    619 H          12.4080   -0.6753    6.8943 H     155  UNL155      0.1146
    620 H          12.0839   -1.2106    5.3918 H     155  UNL155      0.1146
    621 N          11.3146    2.4776    0.6849 N.3   156  UNL156     -0.3437
    622 H          10.3717    2.2653    0.3621 H     156  UNL156      0.1146
    623 H          11.6996    1.5977    1.0257 H     156  UNL156      0.1146
    624 H          11.8504    2.7142   -0.1489 H     156  UNL156      0.1146
    625 N          11.3297    2.1401    3.7899 N.3   157  UNL157     -0.3437
    626 H          10.6858    1.6949    3.1376 H     157  UNL157      0.1146
    627 H          12.0464    1.4455    3.9953 H     157  UNL157      0.1146
    628 H          11.7963    2.8780    3.2643 H     157  UNL157      0.1146
    629 N          10.9659    2.0221    7.0856 N.3   158  UNL158     -0.3437
    630 H          10.4405    2.6565    7.6855 H     158  UNL158      0.1146
    631 H          11.4401    2.6102    6.4018 H     158  UNL158      0.1146
    632 H          11.6993    1.6249    7.6710 H     158  UNL158      0.1146
    633 N          11.0575    2.0586   10.2053 N.3   159  UNL159     -0.3437
    634 H          10.1399    1.7396    9.8978 H     159  UNL159      0.1146
    635 H          11.7251    1.3731    9.8549 H     159  UNL159      0.1146
    636 H          11.2425    2.9189    9.6915 H     159  UNL159      0.1146
    637 N          10.9598    0.7456   13.4956 N.3   160  UNL160     -0.3437
    638 H          10.7233    0.8239   12.5075 H     160  UNL160      0.1146
    639 H          11.7610    0.1178   13.5439 H     160  UNL160      0.1146
    640 H          11.3045    1.6628   13.7755 H     160  UNL160      0.1146
    641 N          11.3538    5.4601    1.5228 N.3   161  UNL161     -0.3437
    642 H          10.6946    5.8915    2.1691 H     161  UNL161      0.1146
    643 H          12.0801    6.1553    1.3567 H     161  UNL161      0.1146
    644 H          11.8011    4.7048    2.0403 H     161  UNL161      0.1146
    645 N          11.4403    5.2918    4.6042 N.3   162  UNL162     -0.3437
    646 H          10.8402    4.7124    4.0189 H     162  UNL162      0.1146
    647 H          11.9215    4.6513    5.2340 H     162  UNL162      0.1146
    648 H          12.1570    5.6686    3.9855 H     162  UNL162      0.1146
    649 N          11.3252    5.5620    8.3854 N.3   163  UNL163     -0.3437
    650 H          10.4385    5.1575    8.0877 H     163  UNL163      0.1146
    651 H          11.8922    4.7828    8.7167 H     163  UNL163      0.1146
    652 H          11.7789    5.8989    7.5375 H     163  UNL163      0.1146
    653 N          11.6406    4.1665   12.9834 N.3   164  UNL164     -0.3437
    654 H          11.1299    4.8123   12.3830 H     164  UNL164      0.1146
    655 H          10.9985    3.9123   13.7328 H     164  UNL164      0.1146
    656 H          11.7784    3.3203   12.4327 H     164  UNL164      0.1146
    657 N          11.1854    8.4044    0.2644 N.3   165  UNL165     -0.3437
    658 H          10.8112    7.4677    0.1200 H     165  UNL165      0.1146
    659 H          11.9411    8.3038    0.9406 H     165  UNL165      0.1146
    660 H          11.6284    8.6685   -0.6145 H     165  UNL165      0.1146
    661 N          11.1419    8.3251    3.3684 N.3   166  UNL166     -0.3437
    662 H          10.6861    7.9243    4.1869 H     166  UNL166      0.1146
    663 H          11.7339    9.0777    3.7169 H     166  UNL166      0.1146
    664 H          11.7760    7.6073    3.0203 H     166  UNL166      0.1146
    665 N          11.2202    8.3520    6.7275 N.3   167  UNL167     -0.3437
    666 H          10.8439    7.4892    6.3372 H     167  UNL167      0.1146
    667 H          12.0072    8.0756    7.3130 H     167  UNL167      0.1146
    668 H          11.6203    8.8642    5.9427 H     167  UNL167      0.1146
    669 N          11.4731    8.2335    9.9056 N.3   168  UNL168     -0.3437
    670 H          10.5387    8.6351    9.9701 H     168  UNL168      0.1146
    671 H          12.0682    8.8103   10.4984 H     168  UNL168      0.1146
    672 H          11.4198    7.3237   10.3615 H     168  UNL168      0.1146
    673 N          11.4215    8.1136   13.4946 N.3   169  UNL169     -0.3437
    674 H          10.6727    7.5120   13.1545 H     169  UNL169      0.1146
    675 H          12.1420    7.4892   13.8544 H     169  UNL169      0.1146
    676 H          11.8215    8.5579   12.6694 H     169  UNL169      0.1146
    677 N          11.4093   11.0204    1.9105 N.3   170  UNL170     -0.3437
    678 H          10.8683   10.9208    1.0527 H     170  UNL170      0.1146
    679 H          12.1132   10.2840    1.8858 H     170  UNL170      0.1146
    680 H          11.9184   11.8986    1.8211 H     170  UNL170      0.1146
    681 N          11.1191   11.6808    4.9111 N.3   171  UNL171     -0.3437
    682 H          11.9233   11.9348    4.3393 H     171  UNL171      0.1146
    683 H          10.4494   12.4419    4.8079 H     171  UNL171      0.1146
    684 H          10.6966   10.8717    4.4580 H     171  UNL171      0.1146
    685 N          11.3503   11.8187    8.0887 N.3   172  UNL172     -0.3437
    686 H          10.6732   12.0640    8.8097 H     172  UNL172      0.1146
    687 H          11.9848   12.6129    8.0175 H     172  UNL172      0.1146
    688 H          11.9019   11.0518    8.4707 H     172  UNL172      0.1146
    689 N          11.4923   11.2881   11.2326 N.3   173  UNL173     -0.3437
    690 H          12.1669   10.6818   11.6969 H     173  UNL173      0.1146
    691 H          11.0776   10.7289   10.4884 H     173  UNL173      0.1146
    692 H          10.7482   11.4507   11.9096 H     173  UNL173      0.1146
    693 N          12.1274   11.5175   14.2188 N.3   174  UNL174     -0.3437
    694 H          11.5919   10.7480   13.8193 H     174  UNL174      0.1146
    695 H          12.6999   11.8849   13.4600 H     174  UNL174      0.1146
    696 H          11.4504   12.2467   14.4382 H     174  UNL174      0.1146
    697 N          10.6555   13.8963    0.6011 N.3   175  UNL175     -0.3437
    698 H          10.1480   13.2328    1.1847 H     175  UNL175      0.1146
    699 H          10.2802   14.8157    0.8296 H     175  UNL175      0.1146
    700 H          11.6159   13.8925    0.9415 H     175  UNL175      0.1146
    701 N          11.5637   14.4332    3.5349 N.3   176  UNL176     -0.3437
    702 H          11.2022   13.5929    3.0859 H     176  UNL176      0.1146
    703 H          12.2352   14.1129    4.2313 H     176  UNL176      0.1146
    704 H          12.1074   14.9199    2.8237 H     176  UNL176      0.1146
    705 N          11.3623   14.8872    6.6148 N.3   177  UNL177     -0.3437
    706 H          11.2285   13.9979    6.1356 H     177  UNL177      0.1146
    707 H          12.0422   14.7092    7.3527 H     177  UNL177      0.1146
    708 H          11.8276   15.4994    5.9461 H     177  UNL177      0.1146
    709 N          11.3734   14.3947    9.8316 N.3   178  UNL178     -0.3437
    710 H          10.7428   15.1406   10.1220 H     178  UNL178      0.1146
    711 H          12.2354   14.8533    9.5398 H     178  UNL178      0.1146
    712 H          11.6039   13.8763   10.6781 H     178  UNL178      0.1146
    713 N          11.1495   14.6825   13.1642 N.3   179  UNL179     -0.3437
    714 H          11.5348   13.7864   12.8693 H     179  UNL179      0.1146
    715 H          11.9038   15.1667   13.6490 H     179  UNL179      0.1146
    716 H          10.9806   15.2106   12.3092 H     179  UNL179      0.1146
    717 N          11.4092   17.2008   -0.0369 N.3   180  UNL180     -0.3437
    718 H          10.5535   17.2516    0.5141 H     180  UNL180      0.1146
    719 H          12.1741   17.3623    0.6167 H     180  UNL180      0.1146
    720 H          11.4944   16.2300   -0.3345 H     180  UNL180      0.1146
    721 N          11.7480   17.5445    3.4013 N.3   181  UNL181     -0.3437
    722 H          11.8692   18.4471    3.8585 H     181  UNL181      0.1146
    723 H          11.1279   17.0054    4.0039 H     181  UNL181      0.1146
    724 H          11.2205   17.7298    2.5494 H     181  UNL181      0.1146
    725 N          11.6446   18.1803    6.4336 N.3   182  UNL182     -0.3437
    726 H          11.3818   18.7359    7.2464 H     182  UNL182      0.1146
    727 H          10.8492   18.2191    5.7977 H     182  UNL182      0.1146
    728 H          12.3964   18.6925    5.9744 H     182  UNL182      0.1146
    729 N          11.8845   17.4322    9.4381 N.3   183  UNL183     -0.3437
    730 H          10.9412   17.7997    9.3222 H     183  UNL183      0.1146
    731 H          12.5059   18.1101    8.9992 H     183  UNL183      0.1146
    732 H          12.0821   17.4756   10.4368 H     183  UNL183      0.1146
    733 N          11.3903   17.7525   12.9703 N.3   184  UNL184     -0.3437
    734 H          11.2228   18.4259   12.2240 H     184  UNL184      0.1146
    735 H          12.0775   17.0944   12.6058 H     184  UNL184      0.1146
    736 H          11.8611   18.2676   13.7129 H     184  UNL184      0.1146
    737 N          12.0320   20.2110    0.3968 N.3   185  UNL185     -0.3437
    738 H          11.5025   21.0688    0.2477 H     185  UNL185      0.1146
    739 H          11.4675   19.6375    1.0220 H     185  UNL185      0.1146
    740 H          12.0391   19.7260   -0.4994 H     185  UNL185      0.1146
    741 N          11.5984   21.2096    3.2741 N.3   186  UNL186     -0.3437
    742 H          10.7744   21.7312    3.5696 H     186  UNL186      0.1146
    743 H          12.3403   21.8985    3.1583 H     186  UNL186      0.1146
    744 H          11.8692   20.6367    4.0722 H     186  UNL186      0.1146
    745 N          10.8739   21.4120    6.4027 N.3   187  UNL187     -0.3437
    746 H          11.8606   21.1991    6.2632 H     187  UNL187      0.1146
    747 H          10.3913   20.5145    6.4108 H     187  UNL187      0.1146
    748 H          10.7973   21.7807    7.3496 H     187  UNL187      0.1146
    749 N          11.4152   20.4590    9.5613 N.3   188  UNL188     -0.3437
    750 H          10.6165   21.0760    9.4213 H     188  UNL188      0.1146
    751 H          11.8625   20.3675    8.6503 H     188  UNL188      0.1146
    752 H          12.0708   20.9763   10.1453 H     188  UNL188      0.1146
    753 N          11.3844   21.2953   12.6849 N.3   189  UNL189     -0.3437
    754 H          11.0400   21.8312   11.8896 H     189  UNL189      0.1146
    755 H          12.3761   21.1393   12.5103 H     189  UNL189      0.1146
    756 H          11.3357   21.9212   13.4876 H     189  UNL189      0.1146
    757 N          11.5565   24.2045   -0.0193 N.3   190  UNL190     -0.3437
    758 H          10.7888   24.6710   -0.5003 H     190  UNL190      0.1146
    759 H          12.0426   23.6586   -0.7294 H     190  UNL190      0.1146
    760 H          12.2027   24.9415    0.2594 H     190  UNL190      0.1146
    761 N          11.8115   24.7237    3.3951 N.3   191  UNL191     -0.3437
    762 H          11.2978   23.8490    3.2984 H     191  UNL191      0.1146
    763 H          12.6661   24.4932    3.8999 H     191  UNL191      0.1146
    764 H          12.1028   24.9839    2.4539 H     191  UNL191      0.1146
    765 N          11.1437   24.3950    6.3668 N.3   192  UNL192     -0.3437
    766 H          10.9931   23.9523    7.2722 H     192  UNL192      0.1146
    767 H          11.5964   25.2868    6.5621 H     192  UNL192      0.1146
    768 H          11.8399   23.8254    5.8880 H     192  UNL192      0.1146
    769 N          11.5934   25.1504    9.5817 N.3   193  UNL193     -0.3437
    770 H          11.3483   24.1671    9.6885 H     193  UNL193      0.1146
    771 H          12.2810   25.3489   10.3071 H     193  UNL193      0.1146
    772 H          12.0917   25.2210    8.6956 H     193  UNL193      0.1146
    773 N          11.3801   24.5317   13.1534 N.3   194  UNL194     -0.3437
    774 H          10.7842   23.8781   12.6474 H     194  UNL194      0.1146
    775 H          12.1286   23.9725   13.5600 H     194  UNL194      0.1146
    776 H          11.8201   25.1171   12.4448 H     194  UNL194      0.1146
    777 N          14.6721   -0.6435    5.3641 N.3   195  UNL195     -0.3437
    778 H          14.2089   -1.3745    4.8262 H     195  UNL195      0.1146
    779 H          14.5280   -0.8820    6.3443 H     195  UNL195      0.1146
    780 H          15.6699   -0.7571    5.1913 H     195  UNL195      0.1146
    781 N          14.5055   -1.3274    9.1644 N.3   196  UNL196     -0.3437
    782 H          14.2952   -0.8368   10.0324 H     196  UNL196      0.1146
    783 H          13.9256   -0.8924    8.4483 H     196  UNL196      0.1146
    784 H          15.4677   -1.0861    8.9314 H     196  UNL196      0.1146
    785 N          14.2799    1.6634    0.2910 N.3   197  UNL197     -0.3437
    786 H          13.4899    1.2538   -0.2056 H     197  UNL197      0.1146
    787 H          14.9696    0.9190    0.3841 H     197  UNL197      0.1146
    788 H          14.6882    2.3464   -0.3456 H     197  UNL197      0.1146
    789 N          14.5980    1.8877    3.4325 N.3   198  UNL198     -0.3437
    790 H          13.9384    2.5562    3.8281 H     198  UNL198      0.1146
    791 H          15.1009    2.3886    2.7013 H     198  UNL198      0.1146
    792 H          15.2810    1.7000    4.1650 H     198  UNL198      0.1146
    793 N          14.0423    2.1214    6.4695 N.3   199  UNL199     -0.3437
    794 H          13.5406    2.6553    7.1777 H     199  UNL199      0.1146
    795 H          14.5658    2.8033    5.9222 H     199  UNL199      0.1146
    796 H          14.7375    1.5716    6.9723 H     199  UNL199      0.1146
    797 N          14.3241    1.7722    9.5681 N.3   200  UNL200     -0.3437
    798 H          14.7780    2.4768    8.9884 H     200  UNL200      0.1146
    799 H          13.6999    2.2815   10.1921 H     200  UNL200      0.1146
    800 H          13.7220    1.2391    8.9423 H     200  UNL200      0.1146
    801 N          14.2370    2.4625   13.0521 N.3   201  UNL201     -0.3437
    802 H          13.3887    2.3461   13.6045 H     201  UNL201      0.1146
    803 H          14.9042    2.9373   13.6585 H     201  UNL201      0.1146
    804 H          14.6081    1.5247   12.9062 H     201  UNL201      0.1146
    805 N          14.4254    4.8630    2.0367 N.3   202  UNL202     -0.3437
    806 H          15.1032    5.4521    1.5551 H     202  UNL202      0.1146
    807 H          13.8060    5.4990    2.5371 H     202  UNL202      0.1146
    808 H          13.8576    4.4341    1.3073 H     202  UNL202      0.1146
    809 N          14.5393    5.3174    5.0850 N.3   203  UNL203     -0.3437
    810 H          14.0119    4.6305    4.5480 H     203  UNL203      0.1146
    811 H          15.4233    4.8696    5.3226 H     203  UNL203      0.1146
    812 H          14.7701    6.0662    4.4335 H     203  UNL203      0.1146
    813 N          14.3515    5.6550    8.1680 N.3   204  UNL204     -0.3437
    814 H          13.7947    5.0217    7.5960 H     204  UNL204      0.1146
    815 H          14.9635    5.0632    8.7280 H     204  UNL204      0.1146
    816 H          14.9597    6.1559    7.5218 H     204  UNL204      0.1146
    817 N          14.2273    5.4240   11.2479 N.3   205  UNL205     -0.3437
    818 H          13.7219    4.8789   10.5509 H     205  UNL205      0.1146
    819 H          14.7482    4.7504   11.8076 H     205  UNL205      0.1146
    820 H          14.9244    5.9605   10.7335 H     205  UNL205      0.1146
    821 N          14.5586    5.4800   14.3432 N.3   206  UNL206     -0.3437
    822 H          15.0983    5.3837   15.2022 H     206  UNL206      0.1146
    823 H          13.8636    4.7350   14.3631 H     206  UNL206      0.1146
    824 H          14.0386    6.3516   14.4344 H     206  UNL206      0.1146
    825 N          14.4507    8.6684    0.1772 N.3   207  UNL207     -0.3437
    826 H          14.7228    7.9405   -0.4820 H     207  UNL207      0.1146
    827 H          15.2196    8.7477    0.8412 H     207  UNL207      0.1146
    828 H          14.4459    9.5391   -0.3522 H     207  UNL207      0.1146
    829 N          14.2526    8.4474    3.4459 N.3   208  UNL208     -0.3437
    830 H          13.6623    7.9388    4.1027 H     208  UNL208      0.1146
    831 H          14.8569    9.0407    4.0127 H     208  UNL208      0.1146
    832 H          14.8626    7.7513    3.0194 H     208  UNL208      0.1146
    833 N          14.4925    8.5722    6.5389 N.3   209  UNL209     -0.3437
    834 H          13.8092    9.0816    5.9804 H     209  UNL209      0.1146
    835 H          14.7207    7.7334    6.0071 H     209  UNL209      0.1146
    836 H          15.3367    9.1428    6.5391 H     209  UNL209      0.1146
    837 N          14.5610    8.3804    9.7029 N.3   210  UNL210     -0.3437
    838 H          14.0505    7.9635   10.4800 H     210  UNL210      0.1146
    839 H          15.0505    9.1866   10.0886 H     210  UNL210      0.1146
    840 H          15.2836    7.7083    9.4488 H     210  UNL210      0.1146
    841 N          14.4483    8.4901   13.0149 N.3   211  UNL211     -0.3437
    842 H          13.9831    7.6550   12.6618 H     211  UNL211      0.1146
    843 H          15.0706    8.1725   13.7567 H     211  UNL211      0.1146
    844 H          15.0526    8.8148   12.2613 H     211  UNL211      0.1146
    845 N          14.4976   11.3822    1.5241 N.3   212  UNL212     -0.3437
    846 H          13.7873   11.2948    0.7987 H     212  UNL212      0.1146
    847 H          15.3337   10.9323    1.1542 H     212  UNL212      0.1146
    848 H          14.7166   12.3756    1.5844 H     212  UNL212      0.1146
    849 N          14.5707   11.4516    5.0721 N.3   213  UNL213     -0.3437
    850 H          15.2105   12.2269    4.9048 H     213  UNL213      0.1146
    851 H          13.7578   11.8535    5.5370 H     213  UNL213      0.1146
    852 H          14.2484   11.1502    4.1536 H     213  UNL213      0.1146
    853 N          14.5074   11.2493    8.5174 N.3   214  UNL214     -0.3437
    854 H          13.9423   11.4372    7.6906 H     214  UNL214      0.1146
    855 H          15.1616   10.5152    8.2496 H     214  UNL214      0.1146
    856 H          15.0701   12.0852    8.6690 H     214  UNL214      0.1146
    857 N          14.5020   11.9154   11.4830 N.3   215  UNL215     -0.3437
    858 H          14.9414   11.8519   12.4003 H     215  UNL215      0.1146
    859 H          15.2148   12.2842   10.8551 H     215  UNL215      0.1146
    860 H          14.3345   10.9555   11.1848 H     215  UNL215      0.1146
    861 N          13.9508   15.4308    0.2481 N.3   216  UNL216     -0.3437
    862 H          13.4610   15.1929    1.1094 H     216  UNL216      0.1146
    863 H          14.8441   15.8293    0.5338 H     216  UNL216      0.1146
    864 H          14.1704   14.5444   -0.2041 H     216  UNL216      0.1146
    865 N          14.6782   14.6251    3.3940 N.3   217  UNL217     -0.3437
    866 H          14.0613   13.9093    3.0127 H     217  UNL217      0.1146
    867 H          15.4566   14.1261    3.8222 H     217  UNL217      0.1146
    868 H          15.0676   15.1169    2.5909 H     217  UNL217      0.1146
    869 N          14.5001   14.2038    6.5101 N.3   218  UNL218     -0.3437
    870 H          13.7528   14.0327    5.8388 H     218  UNL218      0.1146
    871 H          14.7897   13.2870    6.8477 H     218  UNL218      0.1146
    872 H          15.2853   14.5652    5.9703 H     218  UNL218      0.1146
    873 N          14.8695   14.5724    9.5613 N.3   219  UNL219     -0.3437
    874 H          15.1818   14.8145   10.5005 H     219  UNL219      0.1146
    875 H          14.1831   13.8282    9.6766 H     219  UNL219      0.1146
    876 H          14.3520   15.3813    9.2202 H     219  UNL219      0.1146
    877 N          14.5329   14.5943   13.0361 N.3   220  UNL220     -0.3437
    878 H          14.1803   14.8965   13.9431 H     220  UNL220      0.1146
    879 H          15.0499   15.3867   12.6576 H     220  UNL220      0.1146
    880 H          15.2264   13.8734   13.2302 H     220  UNL220      0.1146
    881 N          14.7365   18.1281    1.6381 N.3   221  UNL221     -0.3437
    882 H          15.1286   18.8725    2.2130 H     221  UNL221      0.1146
    883 H          13.9645   18.5484    1.1225 H     221  UNL221      0.1146
    884 H          15.4486   17.9043    0.9444 H     221  UNL221      0.1146
    885 N          14.5505   17.7748    4.7109 N.3   222  UNL222     -0.3437
    886 H          13.9505   17.2687    5.3606 H     222  UNL222      0.1146
    887 H          15.2044   18.3037    5.2863 H     222  UNL222      0.1146
    888 H          15.1063   17.0672    4.2325 H     222  UNL222      0.1146
    889 N          14.7795   17.8370    7.8599 N.3   223  UNL223     -0.3437
    890 H          14.1647   18.3552    7.2338 H     223  UNL223      0.1146
    891 H          15.5536   17.5079    7.2846 H     223  UNL223      0.1146
    892 H          15.1764   18.5257    8.4974 H     223  UNL223      0.1146
    893 N          14.6854   17.3816   10.9267 N.3   224  UNL224     -0.3437
    894 H          15.4771   17.8417   11.3738 H     224  UNL224      0.1146
    895 H          14.0644   17.0943   11.6818 H     224  UNL224      0.1146
    896 H          14.1886   18.1103   10.4163 H     224  UNL224      0.1146
    897 N          14.4679   18.0698   14.1344 N.3   225  UNL225     -0.3437
    898 H          14.3605   17.0939   13.8618 H     225  UNL225      0.1146
    899 H          15.3244   18.1151   14.6846 H     225  UNL225      0.1146
    900 H          14.6590   18.5822   13.2746 H     225  UNL225      0.1146
    901 N          14.9379   21.5671   -1.3369 N.3   226  UNL226     -0.3437
    902 H          15.6856   21.6713   -0.6524 H     226  UNL226      0.1146
    903 H          14.5436   20.6401   -1.1833 H     226  UNL226      0.1146
    904 H          14.2131   22.2293   -1.0641 H     226  UNL226      0.1146
    905 N          14.5751   21.4481    1.7426 N.3   227  UNL227     -0.3437
    906 H          14.5495   20.6701    1.0850 H     227  UNL227      0.1146
    907 H          15.4678   21.3759    2.2286 H     227  UNL227      0.1146
    908 H          14.6315   22.2931    1.1758 H     227  UNL227      0.1146
    909 N          14.3803   21.1901    4.6943 N.3   228  UNL228     -0.3437
    910 H          13.8312   21.7538    5.3416 H     228  UNL228      0.1146
    911 H          15.1296   21.7950    4.3609 H     228  UNL228      0.1146
    912 H          14.8302   20.4715    5.2596 H     228  UNL228      0.1146
    913 N          14.3115   20.9390    7.7875 N.3   229  UNL229     -0.3437
    914 H          14.0618   20.4182    8.6270 H     229  UNL229      0.1146
    915 H          13.5451   21.5901    7.6226 H     229  UNL229      0.1146
    916 H          15.1161   21.5107    8.0406 H     229  UNL229      0.1146
    917 N          14.5367   21.2950   11.0400 N.3   230  UNL230     -0.3437
    918 H          15.1284   21.5074   10.2380 H     230  UNL230      0.1146
    919 H          13.7973   21.9963   11.0370 H     230  UNL230      0.1146
    920 H          14.0829   20.4078   10.8271 H     230  UNL230      0.1146
    921 N          14.2311   21.6576   14.1976 N.3   231  UNL231     -0.3437
    922 H          14.5792   21.8498   15.1359 H     231  UNL231      0.1146
    923 H          13.4288   22.2715   14.0644 H     231  UNL231      0.1146
    924 H          14.9499   21.9920   13.5574 H     231  UNL231      0.1146
    925 N          14.4206   24.8697   -0.9992 N.3   232  UNL232     -0.3437
    926 H          14.7823   25.7967   -1.2190 H     232  UNL232      0.1146
    927 H          15.1413   24.2108   -1.2906 H     232  UNL232      0.1146
    928 H          14.3854   24.8158    0.0177 H     232  UNL232      0.1146
    929 N          14.9944   24.4772    2.6343 N.3   233  UNL233     -0.3437
    930 H          14.1147   24.1381    2.2477 H     233  UNL233      0.1146
    931 H          15.3967   23.6935    3.1465 H     233  UNL233      0.1146
    932 H          15.6087   24.6366    1.8371 H     233  UNL233      0.1146
    933 N          14.4581   24.1969    6.0599 N.3   234  UNL234     -0.3437
    934 H          13.7452   24.8634    6.3532 H     234  UNL234      0.1146
    935 H          15.3544   24.6336    6.2704 H     234  UNL234      0.1146
    936 H          14.3772   23.4025    6.6930 H     234  UNL234      0.1146
    937 N          14.5341   23.9633    9.4310 N.3   235  UNL235     -0.3437
    938 H          14.0736   23.0979    9.1527 H     235  UNL235      0.1146
    939 H          15.2703   23.6930   10.0817 H     235  UNL235      0.1146
    940 H          15.0085   24.3094    8.5983 H     235  UNL235      0.1146
    941 N          14.4496   24.9710   12.7527 N.3   236  UNL236     -0.3437
    942 H          14.2485   23.9966   12.9725 H     236  UNL236      0.1146
    943 H          15.1660   25.2662   13.4145 H     236  UNL236      0.1146
    944 H          14.8979   24.9658   11.8375 H     236  UNL236      0.1146
@<TRIPOS>BOND
     1     1     2    1
     2     1     3    1
     3     1     4    1
     4     5     6    1
     5     5     7    1
     6     5     8    1
     7     9    10    1
     8     9    11    1
     9     9    12    1
    10    13    14    1
    11    13    15    1
    12    13    16    1
    13    17    18    1
    14    17    19    1
    15    17    20    1
    16    21    22    1
    17    21    23    1
    18    21    24    1
    19    25    26    1
    20    25    27    1
    21    25    28    1
    22    29    30    1
    23    29    31    1
    24    29    32    1
    25    33    34    1
    26    33    35    1
    27    33    36    1
    28    37    38    1
    29    37    39    1
    30    37    40    1
    31    41    42    1
    32    41    43    1
    33    41    44    1
    34    45    46    1
    35    45    47    1
    36    45    48    1
    37    49    50    1
    38    49    51    1
    39    49    52    1
    40    53    54    1
    41    53    55    1
    42    53    56    1
    43    57    58    1
    44    57    59    1
    45    57    60    1
    46    61    62    1
    47    61    63    1
    48    61    64    1
    49    65    66    1
    50    65    67    1
    51    65    68    1
    52    69    70    1
    53    69    71    1
    54    69    72    1
    55    73    74    1
    56    73    75    1
    57    73    76    1
    58    77    78    1
    59    77    79    1
    60    77    80    1
    61    81    82    1
    62    81    83    1
    63    81    84    1
    64    85    86    1
    65    85    87    1
    66    85    88    1
    67    89    90    1
    68    89    91    1
    69    89    92    1
    70    93    94    1
    71    93    95    1
    72    93    96    1
    73    97    98    1
    74    97    99    1
    75    97   100    1
    76   101   102    1
    77   101   103    1
    78   101   104    1
    79   105   106    1
    80   105   107    1
    81   105   108    1
    82   109   110    1
    83   109   111    1
    84   109   112    1
    85   113   114    1
    86   113   115    1
    87   113   116    1
    88   117   118    1
    89   117   119    1
    90   117   120    1
    91   121   122    1
    92   121   123    1
    93   121   124    1
    94   125   126    1
    95   125   127    1
    96   125   128    1
    97   129   130    1
    98   129   131    1
    99   129   132    1
   100   133   134    1
   101   133   135    1
   102   133   136    1
   103   137   138    1
   104   137   139    1
   105   137   140    1
   106   141   142    1
   107   141   143    1
   108   141   144    1
   109   145   146    1
   110   145   147    1
   111   145   148    1
   112   149   150    1
   113   149   151    1
   114   149   152    1
   115   153   154    1
   116   153   155    1
   117   153   156    1
   118   157   158    1
   119   157   159    1
   120   157   160    1
   121   161   162    1
   122   161   163    1
   123   161   164    1
   124   165   166    1
   125   165   167    1
   126   165   168    1
   127   169   170    1
   128   169   171    1
   129   169   172    1
   130   173   174    1
   131   173   175    1
   132   173   176    1
   133   177   178    1
   134   177   179    1
   135   177   180    1
   136   181   182    1
   137   181   183    1
   138   181   184    1
   139   185   186    1
   140   185   187    1
   141   185   188    1
   142   189   190    1
   143   189   191    1
   144   189   192    1
   145   193   194    1
   146   193   195    1
   147   193   196    1
   148   197   198    1
   149   197   199    1
   150   197   200    1
   151   201   202    1
   152   201   203    1
   153   201   204    1
   154   205   206    1
   155   205   207    1
   156   205   208    1
   157   209   210    1
   158   209   211    1
   159   209   212    1
   160   213   214    1
   161   213   215    1
   162   213   216    1
   163   217   218    1
   164   217   219    1
   165   217   220    1
   166   221   222    1
   167   221   223    1
   168   221   224    1
   169   225   226    1
   170   225   227    1
   171   225   228    1
   172   229   230    1
   173   229   231    1
   174   229   232    1
   175   233   234    1
   176   233   235    1
   177   233   236    1
   178   237   238    1
   179   237   239    1
   180   237   240    1
   181   241   242    1
   182   241   243    1
   183   241   244    1
   184   245   246    1
   185   245   247    1
   186   245   248    1
   187   249   250    1
   188   249   251    1
   189   249   252    1
   190   253   254    1
   191   253   255    1
   192   253   256    1
   193   257   258    1
   194   257   259    1
   195   257   260    1
   196   261   262    1
   197   261   263    1
   198   261   264    1
   199   265   266    1
   200   265   267    1
   201   265   268    1
   202   269   270    1
   203   269   271    1
   204   269   272    1
   205   273   274    1
   206   273   275    1
   207   273   276    1
   208   277   278    1
   209   277   279    1
   210   277   280    1
   211   281   282    1
   212   281   283    1
   213   281   284    1
   214   285   286    1
   215   285   287    1
   216   285   288    1
   217   289   290    1
   218   289   291    1
   219   289   292    1
   220   293   294    1
   221   293   295    1
   222   293   296    1
   223   297   298    1
   224   297   299    1
   225   297   300    1
   226   301   302    1
   227   301   303    1
   228   301   304    1
   229   305   306    1
   230   305   307    1
   231   305   308    1
   232   309   310    1
   233   309   311    1
   234   309   312    1
   235   313   314    1
   236   313   315    1
   237   313   316    1
   238   317   318    1
   239   317   319    1
   240   317   320    1
   241   321   322    1
   242   321   323    1
   243   321   324    1
   244   325   326    1
   245   325   327    1
   246   325   328    1
   247   329   330    1
   248   329   331    1
   249   329   332    1
   250   333   334    1
   251   333   335    1
   252   333   336    1
   253   337   338    1
   254   337   339    1
   255   337   340    1
   256   341   342    1
   257   341   343    1
   258   341   344    1
   259   345   346    1
   260   345   347    1
   261   345   348    1
   262   349   350    1
   263   349   351    1
   264   349   352    1
   265   353   354    1
   266   353   355    1
   267   353   356    1
   268   357   358    1
   269   357   359    1
   270   357   360    1
   271   361   362    1
   272   361   363    1
   273   361   364    1
   274   365   366    1
   275   365   367    1
   276   365   368    1
   277   369   370    1
   278   369   371    1
   279   369   372    1
   280   373   374    1
   281   373   375    1
   282   373   376    1
   283   377   378    1
   284   377   379    1
   285   377   380    1
   286   381   382    1
   287   381   383    1
   288   381   384    1
   289   385   386    1
   290   385   387    1
   291   385   388    1
   292   389   390    1
   293   389   391    1
   294   389   392    1
   295   393   394    1
   296   393   395    1
   297   393   396    1
   298   397   398    1
   299   397   399    1
   300   397   400    1
   301   401   402    1
   302   401   403    1
   303   401   404    1
   304   405   406    1
   305   405   407    1
   306   405   408    1
   307   409   410    1
   308   409   411    1
   309   409   412    1
   310   413   414    1
   311   413   415    1
   312   413   416    1
   313   417   418    1
   314   417   419    1
   315   417   420    1
   316   421   422    1
   317   421   423    1
   318   421   424    1
   319   425   426    1
   320   425   427    1
   321   425   428    1
   322   429   430    1
   323   429   431    1
   324   429   432    1
   325   433   434    1
   326   433   435    1
   327   433   436    1
   328   437   438    1
   329   437   439    1
   330   437   440    1
   331   441   442    1
   332   441   443    1
   333   441   444    1
   334   445   446    1
   335   445   447    1
   336   445   448    1
   337   449   450    1
   338   449   451    1
   339   449   452    1
   340   453   454    1
   341   453   455    1
   342   453   456    1
   343   457   458    1
   344   457   459    1
   345   457   460    1
   346   461   462    1
   347   461   463    1
   348   461   464    1
   349   465   466    1
   350   465   467    1
   351   465   468    1
   352   469   470    1
   353   469   471    1
   354   469   472    1
   355   473   474    1
   356   473   475    1
   357   473   476    1
   358   477   478    1
   359   477   479    1
   360   477   480    1
   361   481   482    1
   362   481   483    1
   363   481   484    1
   364   485   486    1
   365   485   487    1
   366   485   488    1
   367   489   490    1
   368   489   491    1
   369   489   492    1
   370   493   494    1
   371   493   495    1
   372   493   496    1
   373   497   498    1
   374   497   499    1
   375   497   500    1
   376   501   502    1
   377   501   503    1
   378   501   504    1
   379   505   506    1
   380   505   507    1
   381   505   508    1
   382   509   510    1
   383   509   511    1
   384   509   512    1
   385   513   514    1
   386   513   515    1
   387   513   516    1
   388   517   518    1
   389   517   519    1
   390   517   520    1
   391   521   522    1
   392   521   523    1
   393   521   524    1
   394   525   526    1
   395   525   527    1
   396   525   528    1
   397   529   530    1
   398   529   531    1
   399   529   532    1
   400   533   534    1
   401   533   535    1
   402   533   536    1
   403   537   538    1
   404   537   539    1
   405   537   540    1
   406   541   542    1
   407   541   543    1
   408   541   544    1
   409   545   546    1
   410   545   547    1
   411   545   548    1
   412   549   550    1
   413   549   551    1
   414   549   552    1
   415   553   554    1
   416   553   555    1
   417   553   556    1
   418   557   558    1
   419   557   559    1
   420   557   560    1
   421   561   562    1
   422   561   563    1
   423   561   564    1
   424   565   566    1
   425   565   567    1
   426   565   568    1
   427   569   570    1
   428   569   571    1
   429   569   572    1
   430   573   574    1
   431   573   575    1
   432   573   576    1
   433   577   578    1
   434   577   579    1
   435   577   580    1
   436   581   582    1
   437   581   583    1
   438   581   584    1
   439   585   586    1
   440   585   587    1
   441   585   588    1
   442   589   590    1
   443   589   591    1
   444   589   592    1
   445   593   594    1
   446   593   595    1
   447   593   596    1
   448   597   598    1
   449   597   599    1
   450   597   600    1
   451   601   602    1
   452   601   603    1
   453   601   604    1
   454   605   606    1
   455   605   607    1
   456   605   608    1
   457   609   610    1
   458   609   611    1
   459   609   612    1
   460   613   614    1
   461   613   615    1
   462   613   616    1
   463   617   618    1
   464   617   619    1
   465   617   620    1
   466   621   622    1
   467   621   623    1
   468   621   624    1
   469   625   626    1
   470   625   627    1
   471   625   628    1
   472   629   630    1
   473   629   631    1
   474   629   632    1
   475   633   634    1
   476   633   635    1
   477   633   636    1
   478   637   638    1
   479   637   639    1
   480   637   640    1
   481   641   642    1
   482   641   643    1
   483   641   644    1
   484   645   646    1
   485   645   647    1
   486   645   648    1
   487   649   650    1
   488   649   651    1
   489   649   652    1
   490   653   654    1
   491   653   655    1
   492   653   656    1
   493   657   658    1
   494   657   659    1
   495   657   660    1
   496   661   662    1
   497   661   663    1
   498   661   664    1
   499   665   666    1
   500   665   667    1
   501   665   668    1
   502   669   670    1
   503   669   671    1
   504   669   672    1
   505   673   674    1
   506   673   675    1
   507   673   676    1
   508   677   678    1
   509   677   679    1
   510   677   680    1
   511   681   682    1
   512   681   683    1
   513   681   684    1
   514   685   686    1
   515   685   687    1
   516   685   688    1
   517   689   690    1
   518   689   691    1
   519   689   692    1
   520   693   694    1
   521   693   695    1
   522   693   696    1
   523   697   698    1
   524   697   699    1
   525   697   700    1
   526   701   702    1
   527   701   703    1
   528   701   704    1
   529   705   706    1
   530   705   707    1
   531   705   708    1
   532   709   710    1
   533   709   711    1
   534   709   712    1
   535   713   714    1
   536   713   715    1
   537   713   716    1
   538   717   718    1
   539   717   719    1
   540   717   720    1
   541   721   722    1
   542   721   723    1
   543   721   724    1
   544   725   726    1
   545   725   727    1
   546   725   728    1
   547   729   730    1
   548   729   731    1
   549   729   732    1
   550   733   734    1
   551   733   735    1
   552   733   736    1
   553   737   738    1
   554   737   739    1
   555   737   740    1
   556   741   742    1
   557   741   743    1
   558   741   744    1
   559   745   746    1
   560   745   747    1
   561   745   748    1
   562   749   750    1
   563   749   751    1
   564   749   752    1
   565   753   754    1
   566   753   755    1
   567   753   756    1
   568   757   758    1
   569   757   759    1
   570   757   760    1
   571   761   762    1
   572   761   763    1
   573   761   764    1
   574   765   766    1
   575   765   767    1
   576   765   768    1
   577   769   770    1
   578   769   771    1
   579   769   772    1
   580   773   774    1
   581   773   775    1
   582   773   776    1
   583   777   778    1
   584   777   779    1
   585   777   780    1
   586   781   782    1
   587   781   783    1
   588   781   784    1
   589   785   786    1
   590   785   787    1
   591   785   788    1
   592   789   790    1
   593   789   791    1
   594   789   792    1
   595   793   794    1
   596   793   795    1
   597   793   796    1
   598   797   798    1
   599   797   799    1
   600   797   800    1
   601   801   802    1
   602   801   803    1
   603   801   804    1
   604   805   806    1
   605   805   807    1
   606   805   808    1
   607   809   810    1
   608   809   811    1
   609   809   812    1
   610   813   814    1
   611   813   815    1
   612   813   816    1
   613   817   818    1
   614   817   819    1
   615   817   820    1
   616   821   822    1
   617   821   823    1
   618   821   824    1
   619   825   826    1
   620   825   827    1
   621   825   828    1
   622   829   830    1
   623   829   831    1
   624   829   832    1
   625   833   834    1
   626   833   835    1
   627   833   836    1
   628   837   838    1
   629   837   839    1
   630   837   840    1
   631   841   842    1
   632   841   843    1
   633   841   844    1
   634   845   846    1
   635   845   847    1
   636   845   848    1
   637   849   850    1
   638   849   851    1
   639   849   852    1
   640   853   854    1
   641   853   855    1
   642   853   856    1
   643   857   858    1
   644   857   859    1
   645   857   860    1
   646   861   862    1
   647   861   863    1
   648   861   864    1
   649   865   866    1
   650   865   867    1
   651   865   868    1
   652   869   870    1
   653   869   871    1
   654   869   872    1
   655   873   874    1
   656   873   875    1
   657   873   876    1
   658   877   878    1
   659   877   879    1
   660   877   880    1
   661   881   882    1
   662   881   883    1
   663   881   884    1
   664   885   886    1
   665   885   887    1
   666   885   888    1
   667   889   890    1
   668   889   891    1
   669   889   892    1
   670   893   894    1
   671   893   895    1
   672   893   896    1
   673   897   898    1
   674   897   899    1
   675   897   900    1
   676   901   902    1
   677   901   903    1
   678   901   904    1
   679   905   906    1
   680   905   907    1
   681   905   908    1
   682   909   910    1
   683   909   911    1
   684   909   912    1
   685   913   914    1
   686   913   915    1
   687   913   916    1
   688   917   918    1
   689   917   919    1
   690   917   920    1
   691   921   922    1
   692   921   923    1
   693   921   924    1
   694   925   926    1
   695   925   927    1
   696   925   928    1
   697   929   930    1
   698   929   931    1
   699   929   932    1
   700   933   934    1
   701   933   935    1
   702   933   936    1
   703   937   938    1
   704   937   939    1
   705   937   940    1
   706   941   942    1
   707   941   943    1
   708   941   944    1
