@<TRIPOS>MOLECULE
*****
 2568 1926 0 0 0
SMALL
GASTEIGER

@<TRIPOS>ATOM
      1 N          -0.0111    0.1652    1.1899 N.3     1  UNL1       -0.3437
      2 H          -0.4528   -0.7066    0.9014 H       1  UNL1        0.1146
      3 H           0.7145   -0.0947    1.8565 H       1  UNL1        0.1146
      4 H           0.4764    0.5185    0.3678 H       1  UNL1        0.1146
      5 N          -0.0111    0.1652    3.4786 N.3     2  UNL2       -0.3437
      6 H          -0.4528   -0.7066    3.1901 H       2  UNL2        0.1146
      7 H           0.7145   -0.0947    4.1452 H       2  UNL2        0.1146
      8 H           0.4764    0.5185    2.6565 H       2  UNL2        0.1146
      9 N          -0.0949   -0.0399    6.5527 N.3     3  UNL3       -0.3437
     10 H           0.0428   -0.6335    7.3695 H       3  UNL3        0.1146
     11 H           0.1842    0.8980    6.8368 H       3  UNL3        0.1146
     12 H           0.5948   -0.3423    5.8663 H       3  UNL3        0.1146
     13 N          -0.0111    2.3869    0.8566 N.3     4  UNL4       -0.3437
     14 H          -0.4528    2.6775    1.7277 H       4  UNL4        0.1146
     15 H           0.7145    3.0765    0.6659 H       4  UNL4        0.1146
     16 H           0.4764    1.5168    1.0655 H       4  UNL4        0.1146
     17 N          -0.0111    2.2528    3.5227 N.3     5  UNL5       -0.3437
     18 H          -0.4528    2.7767    2.7686 H       5  UNL5        0.1146
     19 H           0.7145    1.6873    3.0844 H       5  UNL5        0.1146
     20 H           0.4764    2.9408    4.0948 H       5  UNL5        0.1146
     21 N          -0.0949    2.4039    6.5527 N.3     6  UNL6       -0.3437
     22 H           0.0428    1.8103    7.3695 H       6  UNL6        0.1146
     23 H           0.1842    3.3418    6.8368 H       6  UNL6        0.1146
     24 H           0.5948    2.1015    5.8663 H       6  UNL6        0.1146
     25 N          -0.0111    4.6966    3.5227 N.3     7  UNL7       -0.3437
     26 H          -0.4528    5.2205    2.7686 H       7  UNL7        0.1146
     27 H           0.7145    4.1311    3.0844 H       7  UNL7        0.1146
     28 H           0.4764    5.3846    4.0948 H       7  UNL7        0.1146
     29 N          -0.0949    4.8477    6.5527 N.3     8  UNL8       -0.3437
     30 H           0.0428    4.2541    7.3695 H       8  UNL8        0.1146
     31 H           0.1842    5.7856    6.8368 H       8  UNL8        0.1146
     32 H           0.5948    4.5453    5.8663 H       8  UNL8        0.1146
     33 N          -0.0111    7.4966    1.1899 N.3     9  UNL9       -0.3437
     34 H          -0.4528    6.6248    0.9014 H       9  UNL9        0.1146
     35 H           0.7145    7.2367    1.8565 H       9  UNL9        0.1146
     36 H           0.4764    7.8500    0.3678 H       9  UNL9        0.1146
     37 N          -0.0111    7.4966    3.4786 N.3    10  UNL10      -0.3437
     38 H          -0.4528    6.6248    3.1901 H      10  UNL10       0.1146
     39 H           0.7145    7.2367    4.1452 H      10  UNL10       0.1146
     40 H           0.4764    7.8500    2.6565 H      10  UNL10       0.1146
     41 N          -0.0949    7.2915    6.5527 N.3    11  UNL11      -0.3437
     42 H           0.0428    6.6979    7.3695 H      11  UNL11       0.1146
     43 H           0.1842    8.2295    6.8368 H      11  UNL11       0.1146
     44 H           0.5948    6.9891    5.8663 H      11  UNL11       0.1146
     45 N          -0.0111    9.7183    0.8566 N.3    12  UNL12      -0.3437
     46 H          -0.4528   10.0089    1.7277 H      12  UNL12       0.1146
     47 H           0.7145   10.4079    0.6659 H      12  UNL12       0.1146
     48 H           0.4764    8.8482    1.0655 H      12  UNL12       0.1146
     49 N           0.2261    9.5271    3.1737 N.3    13  UNL13      -0.3437
     50 H          -0.7184    9.5291    3.5562 H      13  UNL13       0.1146
     51 H           0.3657   10.4503    2.7654 H      13  UNL13       0.1146
     52 H           0.8535    9.4767    3.9750 H      13  UNL13       0.1146
     53 N          -0.0949    9.7353    6.5527 N.3    14  UNL14      -0.3437
     54 H           0.0428    9.1417    7.3695 H      14  UNL14       0.1146
     55 H           0.1842   10.6733    6.8368 H      14  UNL14       0.1146
     56 H           0.5948    9.4329    5.8663 H      14  UNL14       0.1146
     57 N          -0.0111   12.3842    1.4786 N.3    15  UNL15      -0.3437
     58 H          -0.4528   11.5124    1.1901 H      15  UNL15       0.1146
     59 H           0.7145   12.1243    2.1452 H      15  UNL15       0.1146
     60 H           0.4764   12.7376    0.6565 H      15  UNL15       0.1146
     61 N          -0.0111   12.3842    3.7673 N.3    16  UNL16      -0.3437
     62 H          -0.4528   11.5124    3.4788 H      16  UNL16       0.1146
     63 H           0.7145   12.1243    4.4339 H      16  UNL16       0.1146
     64 H           0.4764   12.7376    2.9452 H      16  UNL16       0.1146
     65 N          -0.0111   14.6059    1.1453 N.3    17  UNL17      -0.3437
     66 H          -0.4528   14.8965    2.0164 H      17  UNL17       0.1146
     67 H           0.7145   15.2955    0.9546 H      17  UNL17       0.1146
     68 H           0.4764   13.7358    1.3542 H      17  UNL17       0.1146
     69 N           0.2751   14.8044    3.4340 N.3    18  UNL18      -0.3437
     70 H           0.7722   14.9844    4.3051 H      18  UNL18       0.1146
     71 H           0.3933   13.8104    3.2433 H      18  UNL18       0.1146
     72 H          -0.7138   14.9346    3.6429 H      18  UNL18       0.1146
     73 N           0.1955   17.2651    0.8511 N.3    19  UNL19      -0.3437
     74 H          -0.4260   17.5880    1.5913 H      19  UNL19       0.1146
     75 H           1.1016   17.1128    1.2917 H      19  UNL19       0.1146
     76 H          -0.1442   16.3430    0.5814 H      19  UNL19       0.1146
     77 N          -0.0111   17.0497    3.1453 N.3    20  UNL20      -0.3437
     78 H          -0.4528   17.3403    4.0164 H      20  UNL20       0.1146
     79 H           0.7145   17.7393    2.9546 H      20  UNL20       0.1146
     80 H           0.4764   16.1796    3.3542 H      20  UNL20       0.1146
     81 N          -0.0949   17.0667    6.5527 N.3    21  UNL21      -0.3437
     82 H           0.0428   16.4732    7.3695 H      21  UNL21       0.1146
     83 H           0.1842   18.0047    6.8368 H      21  UNL21       0.1146
     84 H           0.5948   16.7644    5.8663 H      21  UNL21       0.1146
     85 N          -0.0111   19.7156    1.4786 N.3    22  UNL22      -0.3437
     86 H          -0.4528   18.8438    1.1901 H      22  UNL22       0.1146
     87 H           0.7145   19.4557    2.1452 H      22  UNL22       0.1146
     88 H           0.4764   20.0690    0.6565 H      22  UNL22       0.1146
     89 N          -0.0111   19.7156    3.7673 N.3    23  UNL23      -0.3437
     90 H          -0.4528   18.8438    3.4788 H      23  UNL23       0.1146
     91 H           0.7145   19.4557    4.4339 H      23  UNL23       0.1146
     92 H           0.4764   20.0690    2.9452 H      23  UNL23       0.1146
     93 N           0.1190   21.9373   -0.9223 N.3    24  UNL24      -0.3437
     94 H           1.0812   22.2279   -1.0897 H      24  UNL24       0.1146
     95 H          -0.4680   22.6269   -1.3895 H      24  UNL24       0.1146
     96 H          -0.0054   21.0672   -1.4379 H      24  UNL24       0.1146
     97 N          -0.0111   21.9373    0.8566 N.3    25  UNL25      -0.3437
     98 H          -0.4528   22.2279    1.7277 H      25  UNL25       0.1146
     99 H           0.7145   22.6269    0.6659 H      25  UNL25       0.1146
    100 H           0.4764   21.0672    1.0655 H      25  UNL25       0.1146
    101 N           0.2261   21.7462    3.1737 N.3    26  UNL26      -0.3437
    102 H          -0.7184   21.7481    3.5562 H      26  UNL26       0.1146
    103 H           0.3657   22.6693    2.7654 H      26  UNL26       0.1146
    104 H           0.8535   21.6957    3.9750 H      26  UNL26       0.1146
    105 N          -0.0949   21.9543    6.5527 N.3    27  UNL27      -0.3437
    106 H           0.0428   21.3608    7.3695 H      27  UNL27       0.1146
    107 H           0.1842   22.8923    6.8368 H      27  UNL27       0.1146
    108 H           0.5948   21.6520    5.8663 H      27  UNL27       0.1146
    109 N           0.1955   24.5965    0.8511 N.3    28  UNL28      -0.3437
    110 H          -0.4260   24.9194    1.5913 H      28  UNL28       0.1146
    111 H           1.1016   24.4442    1.2917 H      28  UNL28       0.1146
    112 H          -0.1442   23.6744    0.5814 H      28  UNL28       0.1146
    113 N           0.1955   24.5965    3.1398 N.3    29  UNL29      -0.3437
    114 H          -0.4260   24.9194    3.8800 H      29  UNL29       0.1146
    115 H           1.1016   24.4442    3.5804 H      29  UNL29       0.1146
    116 H          -0.1442   23.6744    2.8701 H      29  UNL29       0.1146
    117 N          -0.0949   24.3981    6.5527 N.3    30  UNL30      -0.3437
    118 H           0.0428   23.8046    7.3695 H      30  UNL30       0.1146
    119 H           0.1842   25.3361    6.8368 H      30  UNL30       0.1146
    120 H           0.5948   24.0958    5.8663 H      30  UNL30       0.1146
    121 N          -0.0111   27.0470    1.1899 N.3    31  UNL31      -0.3437
    122 H          -0.4528   26.1752    0.9014 H      31  UNL31       0.1146
    123 H           0.7145   26.7871    1.8565 H      31  UNL31       0.1146
    124 H           0.4764   27.4004    0.3678 H      31  UNL31       0.1146
    125 N          -0.0111   27.0470    3.4786 N.3    32  UNL32      -0.3437
    126 H          -0.4528   26.1752    3.1901 H      32  UNL32       0.1146
    127 H           0.7145   26.7871    4.1452 H      32  UNL32       0.1146
    128 H           0.4764   27.4004    2.6565 H      32  UNL32       0.1146
    129 N          -0.0949   29.2857    0.9753 N.3    33  UNL33      -0.3437
    130 H           0.0428   28.6922    1.7920 H      33  UNL33       0.1146
    131 H           0.1842   30.2237    1.2594 H      33  UNL33       0.1146
    132 H           0.5948   28.9834    0.2888 H      33  UNL33       0.1146
    133 N           0.1190   29.2687    3.6552 N.3    34  UNL34      -0.3437
    134 H           1.0812   29.5593    3.4877 H      34  UNL34       0.1146
    135 H          -0.4680   29.9583    3.1880 H      34  UNL34       0.1146
    136 H          -0.0054   28.3986    3.1396 H      34  UNL34       0.1146
    137 N          -0.0949   29.2857    6.5527 N.3    35  UNL35      -0.3437
    138 H           0.0428   28.6922    7.3695 H      35  UNL35       0.1146
    139 H           0.1842   30.2237    6.8368 H      35  UNL35       0.1146
    140 H           0.5948   28.9834    5.8663 H      35  UNL35       0.1146
    141 N          -0.0111   32.7125    0.8566 N.3    36  UNL36      -0.3437
    142 H          -0.4528   33.0031    1.7277 H      36  UNL36       0.1146
    143 H           0.7145   33.4021    0.6659 H      36  UNL36       0.1146
    144 H           0.4764   31.8424    1.0655 H      36  UNL36       0.1146
    145 N          -0.0111   31.7125    3.1453 N.3    37  UNL37      -0.3437
    146 H          -0.4528   32.0031    4.0164 H      37  UNL37       0.1146
    147 H           0.7145   32.4021    2.9546 H      37  UNL37       0.1146
    148 H           0.4764   30.8424    3.3542 H      37  UNL37       0.1146
    149 N           0.4752   32.7125    6.6349 N.3    38  UNL38      -0.3437
    150 H           0.0417   33.0031    5.7597 H      38  UNL38       0.1146
    151 H           0.1938   33.4021    7.3303 H      38  UNL38       0.1146
    152 H           0.0161   31.8424    6.9004 H      38  UNL38       0.1146
    153 N           2.1465   -0.1498    0.9364 N.3    39  UNL39      -0.3437
    154 H           2.2743   -0.5330    1.8719 H      39  UNL39       0.1146
    155 H           2.0514    0.8577    1.0561 H      39  UNL39       0.1146
    156 H           3.0311   -0.2926    0.4511 H      39  UNL39       0.1146
    157 N           2.1830    0.1652    3.4786 N.3    40  UNL40      -0.3437
    158 H           1.7413   -0.7066    3.1901 H      40  UNL40       0.1146
    159 H           2.9086   -0.0947    4.1452 H      40  UNL40       0.1146
    160 H           2.6705    0.5185    2.6565 H      40  UNL40       0.1146
    161 N           2.0992   -0.0399    6.5527 N.3    41  UNL41      -0.3437
    162 H           2.2369   -0.6335    7.3695 H      41  UNL41       0.1146
    163 H           2.3783    0.8980    6.8368 H      41  UNL41       0.1146
    164 H           2.7890   -0.3423    5.8663 H      41  UNL41       0.1146
    165 N           2.1830    2.3869    0.8566 N.3    42  UNL42      -0.3437
    166 H           1.7413    2.6775    1.7277 H      42  UNL42       0.1146
    167 H           2.9086    3.0765    0.6659 H      42  UNL42       0.1146
    168 H           2.6705    1.5168    1.0655 H      42  UNL42       0.1146
    169 N           2.4202    2.1957    3.1737 N.3    43  UNL43      -0.3437
    170 H           1.4757    2.1977    3.5562 H      43  UNL43       0.1146
    171 H           2.5598    3.1189    2.7654 H      43  UNL43       0.1146
    172 H           3.0477    2.1453    3.9750 H      43  UNL43       0.1146
    173 N           2.0992    2.4039    6.5527 N.3    44  UNL44      -0.3437
    174 H           2.2369    1.8103    7.3695 H      44  UNL44       0.1146
    175 H           2.3783    3.3418    6.8368 H      44  UNL44       0.1146
    176 H           2.7890    2.1015    5.8663 H      44  UNL44       0.1146
    177 N           2.3896    5.0461    0.8511 N.3    45  UNL45      -0.3437
    178 H           1.7681    5.3689    1.5913 H      45  UNL45       0.1146
    179 H           3.2958    4.8938    1.2917 H      45  UNL45       0.1146
    180 H           2.0499    4.1240    0.5814 H      45  UNL45       0.1146
    181 N           2.3896    5.0461    3.1398 N.3    46  UNL46      -0.3437
    182 H           1.7681    5.3689    3.8800 H      46  UNL46       0.1146
    183 H           3.2958    4.8938    3.5804 H      46  UNL46       0.1146
    184 H           2.0499    4.1240    2.8701 H      46  UNL46       0.1146
    185 N           2.0992    4.8477    6.5527 N.3    47  UNL47      -0.3437
    186 H           2.2369    4.2541    7.3695 H      47  UNL47       0.1146
    187 H           2.3783    5.7856    6.8368 H      47  UNL47       0.1146
    188 H           2.7890    4.5453    5.8663 H      47  UNL47       0.1146
    189 N           2.1465    7.1816    0.9364 N.3    48  UNL48      -0.3437
    190 H           2.2743    6.7984    1.8719 H      48  UNL48       0.1146
    191 H           2.0514    8.1891    1.0561 H      48  UNL48       0.1146
    192 H           3.0311    7.0388    0.4511 H      48  UNL48       0.1146
    193 N           2.1465    7.1816    3.2251 N.3    49  UNL49      -0.3437
    194 H           2.2743    6.7984    4.1606 H      49  UNL49       0.1146
    195 H           2.0514    8.1891    3.3448 H      49  UNL49       0.1146
    196 H           3.0311    7.0388    2.7399 H      49  UNL49       0.1146
    197 N           2.0992    7.2915    6.5527 N.3    50  UNL50      -0.3437
    198 H           2.2369    6.6979    7.3695 H      50  UNL50       0.1146
    199 H           2.3783    8.2295    6.8368 H      50  UNL50       0.1146
    200 H           2.7890    6.9891    5.8663 H      50  UNL50       0.1146
    201 N           2.0992    9.7353    0.9753 N.3    51  UNL51      -0.3437
    202 H           2.2369    9.1417    1.7920 H      51  UNL51       0.1146
    203 H           2.3783   10.6733    1.2594 H      51  UNL51       0.1146
    204 H           2.7890    9.4329    0.2888 H      51  UNL51       0.1146
    205 N           2.3896    9.9337    3.1398 N.3    52  UNL52      -0.3437
    206 H           1.7681   10.2566    3.8800 H      52  UNL52       0.1146
    207 H           3.2958    9.7814    3.5804 H      52  UNL52       0.1146
    208 H           2.0499    9.0116    2.8701 H      52  UNL52       0.1146
    209 N           2.0992    9.7353    6.5527 N.3    53  UNL53      -0.3437
    210 H           2.2369    9.1417    7.3695 H      53  UNL53       0.1146
    211 H           2.3783   10.6733    6.8368 H      53  UNL53       0.1146
    212 H           2.7890    9.4329    5.8663 H      53  UNL53       0.1146
    213 N           2.1830   12.1621    0.8566 N.3    54  UNL54      -0.3437
    214 H           1.7413   12.4527    1.7277 H      54  UNL54       0.1146
    215 H           2.9086   12.8517    0.6659 H      54  UNL54       0.1146
    216 H           2.6705   11.2920    1.0655 H      54  UNL54       0.1146
    217 N           2.1830   12.0280    3.5227 N.3    55  UNL55      -0.3437
    218 H           1.7413   12.5519    2.7686 H      55  UNL55       0.1146
    219 H           2.9086   11.4625    3.0844 H      55  UNL55       0.1146
    220 H           2.6705   12.7161    4.0948 H      55  UNL55       0.1146
    221 N           2.0992   12.1791    6.5527 N.3    56  UNL56      -0.3437
    222 H           2.2369   11.5855    7.3695 H      56  UNL56       0.1146
    223 H           2.3783   13.1171    6.8368 H      56  UNL56       0.1146
    224 H           2.7890   11.8767    5.8663 H      56  UNL56       0.1146
    225 N           2.1276   14.7921   -0.8973 N.3    57  UNL57      -0.3437
    226 H           2.5437   14.5735    0.0068 H      57  UNL57       0.1146
    227 H           2.8515   15.2707   -1.4314 H      57  UNL57       0.1146
    228 H           1.9806   13.8975   -1.3626 H      57  UNL57       0.1146
    229 N           2.1615   14.4331    1.4036 N.3    58  UNL58      -0.3437
    230 H           2.2199   15.0914    2.1792 H      58  UNL58       0.1146
    231 H           2.0366   14.9979    0.5646 H      58  UNL58       0.1146
    232 H           3.0855   14.0112    1.3231 H      58  UNL58       0.1146
    233 N           2.1830   14.6059    3.4340 N.3    59  UNL59      -0.3437
    234 H           1.7413   14.8965    4.3051 H      59  UNL59       0.1146
    235 H           2.9086   15.2955    3.2433 H      59  UNL59       0.1146
    236 H           2.6705   13.7358    3.6429 H      59  UNL59       0.1146
    237 N           2.1830   17.0497    0.8566 N.3    60  UNL60      -0.3437
    238 H           1.7413   17.3403    1.7277 H      60  UNL60       0.1146
    239 H           2.9086   17.7393    0.6659 H      60  UNL60       0.1146
    240 H           2.6705   16.1796    1.0655 H      60  UNL60       0.1146
    241 N           2.1830   16.9156    3.5227 N.3    61  UNL61      -0.3437
    242 H           1.7413   17.4396    2.7686 H      61  UNL61       0.1146
    243 H           2.9086   16.3501    3.0844 H      61  UNL61       0.1146
    244 H           2.6705   17.6037    4.0948 H      61  UNL61       0.1146
    245 N           2.0992   17.0667    6.5527 N.3    62  UNL62      -0.3437
    246 H           2.2369   16.4732    7.3695 H      62  UNL62       0.1146
    247 H           2.3783   18.0047    6.8368 H      62  UNL62       0.1146
    248 H           2.7890   16.7644    5.8663 H      62  UNL62       0.1146
    249 N           2.1830   19.7156    1.4786 N.3    63  UNL63      -0.3437
    250 H           1.7413   18.8438    1.1901 H      63  UNL63       0.1146
    251 H           2.9086   19.4557    2.1452 H      63  UNL63       0.1146
    252 H           2.6705   20.0690    0.6565 H      63  UNL63       0.1146
    253 N           2.1830   19.7156    3.7673 N.3    64  UNL64      -0.3437
    254 H           1.7413   18.8438    3.4788 H      64  UNL64       0.1146
    255 H           2.9086   19.4557    4.4339 H      64  UNL64       0.1146
    256 H           2.6705   20.0690    2.9452 H      64  UNL64       0.1146
    257 N           2.1830   21.9373    0.8566 N.3    65  UNL65      -0.3437
    258 H           1.7413   22.2279    1.7277 H      65  UNL65       0.1146
    259 H           2.9086   22.6269    0.6659 H      65  UNL65       0.1146
    260 H           2.6705   21.0672    1.0655 H      65  UNL65       0.1146
    261 N           2.1830   21.8032    3.5227 N.3    66  UNL66      -0.3437
    262 H           1.7413   22.3272    2.7686 H      66  UNL66       0.1146
    263 H           2.9086   21.2377    3.0844 H      66  UNL66       0.1146
    264 H           2.6705   22.4913    4.0948 H      66  UNL66       0.1146
    265 N           2.0992   21.9543    6.5527 N.3    67  UNL67      -0.3437
    266 H           2.2369   21.3608    7.3695 H      67  UNL67       0.1146
    267 H           2.3783   22.8923    6.8368 H      67  UNL67       0.1146
    268 H           2.7890   21.6520    5.8663 H      67  UNL67       0.1146
    269 N           2.4618   24.5567    1.3199 N.3    68  UNL68      -0.3437
    270 H           3.0817   24.7042    0.5247 H      68  UNL68       0.1146
    271 H           1.5309   24.8247    1.0038 H      68  UNL68       0.1146
    272 H           2.4290   23.5489    1.4672 H      68  UNL68       0.1146
    273 N           2.3132   24.3811    3.6552 N.3    69  UNL69      -0.3437
    274 H           3.2754   24.6717    3.4877 H      69  UNL69       0.1146
    275 H           1.7261   25.0707    3.1880 H      69  UNL69       0.1146
    276 H           2.1888   23.5110    3.1396 H      69  UNL69       0.1146
    277 N           2.0992   24.3981    6.5527 N.3    70  UNL70      -0.3437
    278 H           2.2369   23.8046    7.3695 H      70  UNL70       0.1146
    279 H           2.3783   25.3361    6.8368 H      70  UNL70       0.1146
    280 H           2.7890   24.0958    5.8663 H      70  UNL70       0.1146
    281 N           2.3132   26.8249   -0.9223 N.3    71  UNL71      -0.3437
    282 H           3.2754   27.1155   -1.0897 H      71  UNL71       0.1146
    283 H           1.7261   27.5145   -1.3895 H      71  UNL71       0.1146
    284 H           2.1888   25.9548   -1.4379 H      71  UNL71       0.1146
    285 N           2.1830   27.0470    1.1899 N.3    72  UNL72      -0.3437
    286 H           1.7413   26.1752    0.9014 H      72  UNL72       0.1146
    287 H           2.9086   26.7871    1.8565 H      72  UNL72       0.1146
    288 H           2.6705   27.4004    0.3678 H      72  UNL72       0.1146
    289 N           2.1830   27.0470    3.4786 N.3    73  UNL73      -0.3437
    290 H           1.7413   26.1752    3.1901 H      73  UNL73       0.1146
    291 H           2.9086   26.7871    4.1452 H      73  UNL73       0.1146
    292 H           2.6705   27.4004    2.6565 H      73  UNL73       0.1146
    293 N           0.1615   26.6522    5.6923 N.3    74  UNL74      -0.3437
    294 H           0.2199   27.3105    6.4679 H      74  UNL74       0.1146
    295 H           0.0366   27.2169    4.8533 H      74  UNL74       0.1146
    296 H           1.0855   26.2302    5.6118 H      74  UNL74       0.1146
    297 N           2.1465   29.1759    0.9364 N.3    75  UNL75      -0.3437
    298 H           2.2743   28.7927    1.8719 H      75  UNL75       0.1146
    299 H           2.0514   30.1834    1.0561 H      75  UNL75       0.1146
    300 H           3.0311   29.0330    0.4511 H      75  UNL75       0.1146
    301 N           2.3896   29.4841    3.1398 N.3    76  UNL76      -0.3437
    302 H           1.7681   29.8070    3.8800 H      76  UNL76       0.1146
    303 H           3.2958   29.3318    3.5804 H      76  UNL76       0.1146
    304 H           2.0499   28.5621    2.8701 H      76  UNL76       0.1146
    305 N           2.0992   29.2857    6.5527 N.3    77  UNL77      -0.3437
    306 H           2.2369   28.6922    7.3695 H      77  UNL77       0.1146
    307 H           2.3783   30.2237    6.8368 H      77  UNL77       0.1146
    308 H           2.7890   28.9834    5.8663 H      77  UNL77       0.1146
    309 N           2.1830   32.7125    0.8566 N.3    78  UNL78      -0.3437
    310 H           1.7413   33.0031    1.7277 H      78  UNL78       0.1146
    311 H           2.9086   33.4021    0.6659 H      78  UNL78       0.1146
    312 H           2.6705   31.8424    1.0655 H      78  UNL78       0.1146
    313 N           2.1830   31.7125    3.1453 N.3    79  UNL79      -0.3437
    314 H           1.7413   32.0031    4.0164 H      79  UNL79       0.1146
    315 H           2.9086   32.4021    2.9546 H      79  UNL79       0.1146
    316 H           2.6705   30.8424    3.3542 H      79  UNL79       0.1146
    317 N           2.1830   31.7125    5.4340 N.3    80  UNL80      -0.3437
    318 H           1.7413   32.0031    6.3051 H      80  UNL80       0.1146
    319 H           2.9086   32.4021    5.2433 H      80  UNL80       0.1146
    320 H           2.6705   30.8424    5.6429 H      80  UNL80       0.1146
    321 N           4.3771   -0.0569    0.8566 N.3    81  UNL81      -0.3437
    322 H           3.9354    0.2337    1.7277 H      81  UNL81       0.1146
    323 H           5.1027    0.6327    0.6659 H      81  UNL81       0.1146
    324 H           4.8646   -0.9270    1.0655 H      81  UNL81       0.1146
    325 N           4.3407   -0.1498    3.2251 N.3    82  UNL82      -0.3437
    326 H           4.4684   -0.5330    4.1606 H      82  UNL82       0.1146
    327 H           4.2456    0.8577    3.3448 H      82  UNL82       0.1146
    328 H           5.2253   -0.2926    2.7399 H      82  UNL82       0.1146
    329 N           4.3771    2.2528    1.2340 N.3    83  UNL83      -0.3437
    330 H           3.9354    2.7767    0.4799 H      83  UNL83       0.1146
    331 H           5.1027    1.6873    0.7956 H      83  UNL83       0.1146
    332 H           4.8646    2.9408    1.8061 H      83  UNL83       0.1146
    333 N           4.3771    2.6090    3.4786 N.3    84  UNL84      -0.3437
    334 H           3.9354    1.7372    3.1901 H      84  UNL84       0.1146
    335 H           5.1027    2.3491    4.1452 H      84  UNL84       0.1146
    336 H           4.8646    2.9623    2.6565 H      84  UNL84       0.1146
    337 N           4.3771    0.6090    5.7673 N.3    85  UNL85      -0.3437
    338 H           3.9354   -0.2628    5.4788 H      85  UNL85       0.1146
    339 H           5.1027    0.3491    6.4339 H      85  UNL85       0.1146
    340 H           4.8646    0.9623    4.9452 H      85  UNL85       0.1146
    341 N           4.3771    4.8307    0.8566 N.3    86  UNL86      -0.3437
    342 H           3.9354    5.1213    1.7277 H      86  UNL86       0.1146
    343 H           5.1027    5.5203    0.6659 H      86  UNL86       0.1146
    344 H           4.8646    3.9606    1.0655 H      86  UNL86       0.1146
    345 N           4.3771    4.6966    3.5227 N.3    87  UNL87      -0.3437
    346 H           3.9354    5.2205    2.7686 H      87  UNL87       0.1146
    347 H           5.1027    4.1311    3.0844 H      87  UNL87       0.1146
    348 H           4.8646    5.3846    4.0948 H      87  UNL87       0.1146
    349 N           4.3771    3.0528    5.7673 N.3    88  UNL88      -0.3437
    350 H           3.9354    2.1810    5.4788 H      88  UNL88       0.1146
    351 H           5.1027    2.7929    6.4339 H      88  UNL88       0.1146
    352 H           4.8646    3.4061    4.9452 H      88  UNL88       0.1146
    353 N           4.5073    7.2745    1.3664 N.3    89  UNL89      -0.3437
    354 H           5.4695    7.5651    1.1990 H      89  UNL89       0.1146
    355 H           3.9203    7.9641    0.8993 H      89  UNL89       0.1146
    356 H           4.3829    6.4044    0.8509 H      89  UNL89       0.1146
    357 N           4.3771    7.2745    3.1453 N.3    90  UNL90      -0.3437
    358 H           3.9354    7.5651    4.0164 H      90  UNL90       0.1146
    359 H           5.1027    7.9641    2.9546 H      90  UNL90       0.1146
    360 H           4.8646    6.4044    3.3542 H      90  UNL90       0.1146
    361 N           4.5688    5.1870    5.3840 N.3    91  UNL91      -0.3437
    362 H           4.0167    6.0406    5.4536 H      91  UNL91       0.1146
    363 H           5.5048    5.4309    5.7049 H      91  UNL91       0.1146
    364 H           4.1897    4.5495    6.0828 H      91  UNL91       0.1146
    365 N           4.5837    9.9337    0.8511 N.3    92  UNL92      -0.3437
    366 H           3.9623   10.2566    1.5913 H      92  UNL92       0.1146
    367 H           5.4899    9.7814    1.2917 H      92  UNL92       0.1146
    368 H           4.2441    9.0116    0.5814 H      92  UNL92       0.1146
    369 N           4.3771    9.7183    3.1453 N.3    93  UNL93      -0.3437
    370 H           3.9354   10.0089    4.0164 H      93  UNL93       0.1146
    371 H           5.1027   10.4079    2.9546 H      93  UNL93       0.1146
    372 H           4.8646    8.8482    3.3542 H      93  UNL93       0.1146
    373 N           4.3771    7.9404    5.7673 N.3    94  UNL94      -0.3437
    374 H           3.9354    7.0686    5.4788 H      94  UNL94       0.1146
    375 H           5.1027    7.6805    6.4339 H      94  UNL94       0.1146
    376 H           4.8646    8.2938    4.9452 H      94  UNL94       0.1146
    377 N           4.2934   12.1791    0.9753 N.3    95  UNL95      -0.3437
    378 H           4.4311   11.5855    1.7920 H      95  UNL95       0.1146
    379 H           4.5725   13.1171    1.2594 H      95  UNL95       0.1146
    380 H           4.9831   11.8767    0.2888 H      95  UNL95       0.1146
    381 N           4.3771   12.0280    3.5227 N.3    96  UNL96      -0.3437
    382 H           3.9354   12.5519    2.7686 H      96  UNL96       0.1146
    383 H           5.1027   11.4625    3.0844 H      96  UNL96       0.1146
    384 H           4.8646   12.7161    4.0948 H      96  UNL96       0.1146
    385 N           4.3771   10.3842    5.7673 N.3    97  UNL97      -0.3437
    386 H           3.9354    9.5124    5.4788 H      97  UNL97       0.1146
    387 H           5.1027   10.1243    6.4339 H      97  UNL97       0.1146
    388 H           4.8646   10.7376    4.9452 H      97  UNL97       0.1146
    389 N           4.7075   14.4954    0.8566 N.3    98  UNL98      -0.3437
    390 H           4.7390   13.9676    1.7277 H      98  UNL98       0.1146
    391 H           3.7207   14.6640    0.6659 H      98  UNL98       0.1146
    392 H           5.1128   15.4067    1.0655 H      98  UNL98       0.1146
    393 N           4.3407   14.5131    3.2251 N.3    99  UNL99      -0.3437
    394 H           4.4684   14.1299    4.1606 H      99  UNL99       0.1146
    395 H           4.2456   15.5205    3.3448 H      99  UNL99       0.1146
    396 H           5.2253   14.3702    2.7399 H      99  UNL99       0.1146
    397 N           2.6593   14.5599    6.9283 N.3   100  UNL100     -0.3437
    398 H           1.8420   15.1684    6.9329 H     100  UNL100      0.1146
    399 H           2.4034   13.7501    6.3651 H     100  UNL100      0.1146
    400 H           3.3753   15.0552    6.3989 H     100  UNL100      0.1146
    401 N           4.5073   17.0497    1.3664 N.3   101  UNL101     -0.3437
    402 H           5.4695   17.3403    1.1990 H     101  UNL101      0.1146
    403 H           3.9203   17.7393    0.8993 H     101  UNL101      0.1146
    404 H           4.3829   16.1796    0.8509 H     101  UNL101      0.1146
    405 N           4.3771   17.2718    3.4786 N.3   102  UNL102     -0.3437
    406 H           3.9354   16.4000    3.1901 H     102  UNL102      0.1146
    407 H           5.1027   17.0119    4.1452 H     102  UNL102      0.1146
    408 H           4.8646   17.6252    2.6565 H     102  UNL102      0.1146
    409 N           4.2934   17.0667    6.5527 N.3   103  UNL103     -0.3437
    410 H           4.4311   16.4732    7.3695 H     103  UNL103      0.1146
    411 H           4.5725   18.0047    6.8368 H     103  UNL103      0.1146
    412 H           4.9831   16.7644    5.8663 H     103  UNL103      0.1146
    413 N           4.3771   19.7156    1.4786 N.3   104  UNL104     -0.3437
    414 H           3.9354   18.8438    1.1901 H     104  UNL104      0.1146
    415 H           5.1027   19.4557    2.1452 H     104  UNL104      0.1146
    416 H           4.8646   20.0690    0.6565 H     104  UNL104      0.1146
    417 N           4.3771   19.7156    3.7673 N.3   105  UNL105     -0.3437
    418 H           3.9354   18.8438    3.4788 H     105  UNL105      0.1146
    419 H           5.1027   19.4557    4.4339 H     105  UNL105      0.1146
    420 H           4.8646   20.0690    2.9452 H     105  UNL105      0.1146
    421 N           4.3771   21.9373    0.8566 N.3   106  UNL106     -0.3437
    422 H           3.9354   22.2279    1.7277 H     106  UNL106      0.1146
    423 H           5.1027   22.6269    0.6659 H     106  UNL106      0.1146
    424 H           4.8646   21.0672    1.0655 H     106  UNL106      0.1146
    425 N           4.6143   21.7462    3.1737 N.3   107  UNL107     -0.3437
    426 H           3.6699   21.7481    3.5562 H     107  UNL107      0.1146
    427 H           4.7540   22.6693    2.7654 H     107  UNL107      0.1146
    428 H           5.2418   21.6957    3.9750 H     107  UNL107      0.1146
    429 N           4.2934   21.9543    6.5527 N.3   108  UNL108     -0.3437
    430 H           4.4311   21.3608    7.3695 H     108  UNL108      0.1146
    431 H           4.5725   22.8923    6.8368 H     108  UNL108      0.1146
    432 H           4.9831   21.6520    5.8663 H     108  UNL108      0.1146
    433 N           4.3217   24.5673    1.3914 N.3   109  UNL109     -0.3437
    434 H           4.7378   24.3487    2.2955 H     109  UNL109      0.1146
    435 H           5.0457   25.0459    0.8574 H     109  UNL109      0.1146
    436 H           4.1748   23.6727    0.9261 H     109  UNL109      0.1146
    437 N           4.7075   24.2706    3.4340 N.3   110  UNL110     -0.3437
    438 H           4.7390   23.7428    4.3051 H     110  UNL110      0.1146
    439 H           3.7207   24.4392    3.2433 H     110  UNL110      0.1146
    440 H           5.1128   25.1819    3.6429 H     110  UNL110      0.1146
    441 N           4.3771   27.0470    1.1899 N.3   111  UNL111     -0.3437
    442 H           3.9354   26.1752    0.9014 H     111  UNL111      0.1146
    443 H           5.1027   26.7871    1.8565 H     111  UNL111      0.1146
    444 H           4.8646   27.4004    0.3678 H     111  UNL111      0.1146
    445 N           4.3771   27.0470    3.4786 N.3   112  UNL112     -0.3437
    446 H           3.9354   26.1752    3.1901 H     112  UNL112      0.1146
    447 H           5.1027   26.7871    4.1452 H     112  UNL112      0.1146
    448 H           4.8646   27.4004    2.6565 H     112  UNL112      0.1146
    449 N           2.2812   26.8322    6.5967 N.3   113  UNL113     -0.3437
    450 H           2.5474   27.7506    6.9489 H     113  UNL113      0.1146
    451 H           2.8652   26.6650    5.7785 H     113  UNL113      0.1146
    452 H           2.5862   26.1620    7.3011 H     113  UNL113      0.1146
    453 N           4.5073   29.2687    1.3664 N.3   114  UNL114     -0.3437
    454 H           5.4695   29.5593    1.1990 H     114  UNL114      0.1146
    455 H           3.9203   29.9583    0.8993 H     114  UNL114      0.1146
    456 H           4.3829   28.3986    0.8509 H     114  UNL114      0.1146
    457 N           4.3771   29.2687    3.1453 N.3   115  UNL115     -0.3437
    458 H           3.9354   29.5593    4.0164 H     115  UNL115      0.1146
    459 H           5.1027   29.9583    2.9546 H     115  UNL115      0.1146
    460 H           4.8646   28.3986    3.3542 H     115  UNL115      0.1146
    461 N           4.3771   27.2687    5.4340 N.3   116  UNL116     -0.3437
    462 H           3.9354   27.5593    6.3051 H     116  UNL116      0.1146
    463 H           5.1027   27.9583    5.2433 H     116  UNL116      0.1146
    464 H           4.8646   26.3986    5.6429 H     116  UNL116      0.1146
    465 N           4.3771   32.7125    0.8566 N.3   117  UNL117     -0.3437
    466 H           3.9354   33.0031    1.7277 H     117  UNL117      0.1146
    467 H           5.1027   33.4021    0.6659 H     117  UNL117      0.1146
    468 H           4.8646   31.8424    1.0655 H     117  UNL117      0.1146
    469 N           4.5548   32.9669    3.1787 N.3   118  UNL118     -0.3437
    470 H           3.7488   32.9170    3.8002 H     118  UNL118      0.1146
    471 H           5.3736   33.0117    3.7837 H     118  UNL118      0.1146
    472 H           4.6027   32.0645    2.7078 H     118  UNL118      0.1146
    473 N           4.3771   31.7125    5.4340 N.3   119  UNL119     -0.3437
    474 H           3.9354   32.0031    6.3051 H     119  UNL119      0.1146
    475 H           5.1027   32.4021    5.2433 H     119  UNL119      0.1146
    476 H           4.8646   30.8424    5.6429 H     119  UNL119      0.1146
    477 N           6.5713    0.1652    1.1899 N.3   120  UNL120     -0.3437
    478 H           6.1296   -0.7066    0.9014 H     120  UNL120      0.1146
    479 H           7.2969   -0.0947    1.8565 H     120  UNL120      0.1146
    480 H           7.0588    0.5185    0.3678 H     120  UNL120      0.1146
    481 N           6.5713   -0.0569    3.1453 N.3   121  UNL121     -0.3437
    482 H           6.1296    0.2337    4.0164 H     121  UNL121      0.1146
    483 H           7.2969    0.6327    2.9546 H     121  UNL121      0.1146
    484 H           7.0588   -0.9270    3.3542 H     121  UNL121      0.1146
    485 N           6.4875   -0.0399    6.5527 N.3   122  UNL122     -0.3437
    486 H           6.6252   -0.6335    7.3695 H     122  UNL122      0.1146
    487 H           6.7666    0.8980    6.8368 H     122  UNL122      0.1146
    488 H           7.1772   -0.3423    5.8663 H     122  UNL122      0.1146
    489 N           6.5159    2.5730    1.3914 N.3   123  UNL123     -0.3437
    490 H           6.9320    2.3544    2.2955 H     123  UNL123      0.1146
    491 H           7.2398    3.0517    0.8574 H     123  UNL123      0.1146
    492 H           6.3689    1.6784    0.9261 H     123  UNL123      0.1146
    493 N           6.5042    2.5040    3.5477 N.3   124  UNL124     -0.3437
    494 H           6.9550    3.2120    4.1255 H     124  UNL124      0.1146
    495 H           7.1756    2.2673    2.8186 H     124  UNL124      0.1146
    496 H           6.4217    1.6743    4.1335 H     124  UNL124      0.1146
    497 N           6.7014    4.8307   -0.9223 N.3   125  UNL125     -0.3437
    498 H           7.6637    5.1213   -1.0897 H     125  UNL125      0.1146
    499 H           6.1144    5.5203   -1.3895 H     125  UNL125      0.1146
    500 H           6.5770    3.9606   -1.4379 H     125  UNL125      0.1146
    501 N           6.5713    4.8307    0.8566 N.3   126  UNL126     -0.3437
    502 H           6.1296    5.1213    1.7277 H     126  UNL126      0.1146
    503 H           7.2969    5.5203    0.6659 H     126  UNL126      0.1146
    504 H           7.0588    3.9606    1.0655 H     126  UNL126      0.1146
    505 N           6.8085    4.6395    3.1737 N.3   127  UNL127     -0.3437
    506 H           5.8640    4.6415    3.5562 H     127  UNL127      0.1146
    507 H           6.9481    5.5627    2.7654 H     127  UNL127      0.1146
    508 H           7.4359    4.5891    3.9750 H     127  UNL127      0.1146
    509 N           6.4875    4.8477    6.5527 N.3   128  UNL128     -0.3437
    510 H           6.6252    4.2541    7.3695 H     128  UNL128      0.1146
    511 H           6.7666    5.7856    6.8368 H     128  UNL128      0.1146
    512 H           7.1772    4.5453    5.8663 H     128  UNL128      0.1146
    513 N           6.5713    7.1404   -0.7660 N.3   129  UNL129     -0.3437
    514 H           6.1296    7.6643   -1.5201 H     129  UNL129      0.1146
    515 H           7.2969    6.5749   -1.2044 H     129  UNL129      0.1146
    516 H           7.0588    7.8284   -0.1939 H     129  UNL129      0.1146
    517 N           6.5713    7.4966    1.4786 N.3   130  UNL130     -0.3437
    518 H           6.1296    6.6248    1.1901 H     130  UNL130      0.1146
    519 H           7.2969    7.2367    2.1452 H     130  UNL130      0.1146
    520 H           7.0588    7.8500    0.6565 H     130  UNL130      0.1146
    521 N           6.4875    7.2915    6.5527 N.3   131  UNL131     -0.3437
    522 H           6.6252    6.6979    7.3695 H     131  UNL131      0.1146
    523 H           6.7666    8.2295    6.8368 H     131  UNL131      0.1146
    524 H           7.1772    6.9891    5.8663 H     131  UNL131      0.1146
    525 N           6.5713    9.7183    0.8566 N.3   132  UNL132     -0.3437
    526 H           6.1296   10.0089    1.7277 H     132  UNL132      0.1146
    527 H           7.2969   10.4079    0.6659 H     132  UNL132      0.1146
    528 H           7.0588    8.8482    1.0655 H     132  UNL132      0.1146
    529 N           6.5713    9.5842    3.5227 N.3   133  UNL133     -0.3437
    530 H           6.1296   10.1081    2.7686 H     133  UNL133      0.1146
    531 H           7.2969    9.0187    3.0844 H     133  UNL133      0.1146
    532 H           7.0588   10.2722    4.0948 H     133  UNL133      0.1146
    533 N           6.4875    9.7353    6.5527 N.3   134  UNL134     -0.3437
    534 H           6.6252    9.1417    7.3695 H     134  UNL134      0.1146
    535 H           6.7666   10.6733    6.8368 H     134  UNL134      0.1146
    536 H           7.1772    9.4329    5.8663 H     134  UNL134      0.1146
    537 N           6.5348   12.0693    0.9364 N.3   135  UNL135     -0.3437
    538 H           6.6626   11.6861    1.8719 H     135  UNL135      0.1146
    539 H           6.4397   13.0767    1.0561 H     135  UNL135      0.1146
    540 H           7.4194   11.9264    0.4511 H     135  UNL135      0.1146
    541 N           6.7779   12.3775    3.1398 N.3   136  UNL136     -0.3437
    542 H           6.1564   12.7004    3.8800 H     136  UNL136      0.1146
    543 H           7.6840   12.2252    3.5804 H     136  UNL136      0.1146
    544 H           6.4382   11.4554    2.8701 H     136  UNL136      0.1146
    545 N           6.4875   12.1791    6.5527 N.3   137  UNL137     -0.3437
    546 H           6.6252   11.5855    7.3695 H     137  UNL137      0.1146
    547 H           6.7666   13.1171    6.8368 H     137  UNL137      0.1146
    548 H           7.1772   11.8767    5.8663 H     137  UNL137      0.1146
    549 N           6.8575   14.8044    1.1453 N.3   138  UNL138     -0.3437
    550 H           7.3547   14.9844    2.0164 H     138  UNL138      0.1146
    551 H           6.9757   13.8104    0.9546 H     138  UNL138      0.1146
    552 H           5.8687   14.9346    1.3542 H     138  UNL138      0.1146
    553 N           6.5713   14.8280    3.7673 N.3   139  UNL139     -0.3437
    554 H           6.1296   13.9562    3.4788 H     139  UNL139      0.1146
    555 H           7.2969   14.5681    4.4339 H     139  UNL139      0.1146
    556 H           7.0588   15.1814    2.9452 H     139  UNL139      0.1146
    557 N           6.7779   17.2651    0.8511 N.3   140  UNL140     -0.3437
    558 H           6.1564   17.5880    1.5913 H     140  UNL140      0.1146
    559 H           7.6840   17.1128    1.2917 H     140  UNL140      0.1146
    560 H           6.4382   16.3430    0.5814 H     140  UNL140      0.1146
    561 N           6.5713   17.0497    3.1453 N.3   141  UNL141     -0.3437
    562 H           6.1296   17.3403    4.0164 H     141  UNL141      0.1146
    563 H           7.2969   17.7393    2.9546 H     141  UNL141      0.1146
    564 H           7.0588   16.1796    3.3542 H     141  UNL141      0.1146
    565 N           6.4875   17.0667    6.5527 N.3   142  UNL142     -0.3437
    566 H           6.6252   16.4732    7.3695 H     142  UNL142      0.1146
    567 H           6.7666   18.0047    6.8368 H     142  UNL142      0.1146
    568 H           7.1772   16.7644    5.8663 H     142  UNL142      0.1146
    569 N           6.7779   19.7089    0.8511 N.3   143  UNL143     -0.3437
    570 H           6.1564   20.0318    1.5913 H     143  UNL143      0.1146
    571 H           7.6840   19.5566    1.2917 H     143  UNL143      0.1146
    572 H           6.4382   18.7868    0.5814 H     143  UNL143      0.1146
    573 N           6.7779   19.7089    3.1398 N.3   144  UNL144     -0.3437
    574 H           6.1564   20.0318    3.8800 H     144  UNL144      0.1146
    575 H           7.6840   19.5566    3.5804 H     144  UNL144      0.1146
    576 H           6.4382   18.7868    2.8701 H     144  UNL144      0.1146
    577 N           6.4875   19.5105    6.5527 N.3   145  UNL145     -0.3437
    578 H           6.6252   18.9170    7.3695 H     145  UNL145      0.1146
    579 H           6.7666   20.4485    6.8368 H     145  UNL145      0.1146
    580 H           7.1772   19.2082    5.8663 H     145  UNL145      0.1146
    581 N           6.4875   21.9543    0.9753 N.3   146  UNL146     -0.3437
    582 H           6.6252   21.3608    1.7920 H     146  UNL146      0.1146
    583 H           6.7666   22.8923    1.2594 H     146  UNL146      0.1146
    584 H           7.1772   21.6520    0.2888 H     146  UNL146      0.1146
    585 N           6.7779   22.1527    3.1398 N.3   147  UNL147     -0.3437
    586 H           6.1564   22.4756    3.8800 H     147  UNL147      0.1146
    587 H           7.6840   22.0004    3.5804 H     147  UNL147      0.1146
    588 H           6.4382   21.2306    2.8701 H     147  UNL147      0.1146
    589 N           6.4875   21.9543    6.5527 N.3   148  UNL148     -0.3437
    590 H           6.6252   21.3608    7.3695 H     148  UNL148      0.1146
    591 H           6.7666   22.8923    6.8368 H     148  UNL148      0.1146
    592 H           7.1772   21.6520    5.8663 H     148  UNL148      0.1146
    593 N           6.5713   24.3811    0.8566 N.3   149  UNL149     -0.3437
    594 H           6.1296   24.6717    1.7277 H     149  UNL149      0.1146
    595 H           7.2969   25.0707    0.6659 H     149  UNL149      0.1146
    596 H           7.0588   23.5110    1.0655 H     149  UNL149      0.1146
    597 N           6.8085   24.1900    3.1737 N.3   150  UNL150     -0.3437
    598 H           5.8640   24.1920    3.5562 H     150  UNL150      0.1146
    599 H           6.9481   25.1131    2.7654 H     150  UNL150      0.1146
    600 H           7.4359   24.1395    3.9750 H     150  UNL150      0.1146
    601 N           6.4875   24.3981    6.5527 N.3   151  UNL151     -0.3437
    602 H           6.6252   23.8046    7.3695 H     151  UNL151      0.1146
    603 H           6.7666   25.3361    6.8368 H     151  UNL151      0.1146
    604 H           7.1772   24.0958    5.8663 H     151  UNL151      0.1146
    605 N           6.5348   26.7321    0.9364 N.3   152  UNL152     -0.3437
    606 H           6.6626   26.3489    1.8719 H     152  UNL152      0.1146
    607 H           6.4397   27.7396    1.0561 H     152  UNL152      0.1146
    608 H           7.4194   26.5892    0.4511 H     152  UNL152      0.1146
    609 N           6.5713   27.0470    3.4786 N.3   153  UNL153     -0.3437
    610 H           6.1296   26.1752    3.1901 H     153  UNL153      0.1146
    611 H           7.2969   26.7871    4.1452 H     153  UNL153      0.1146
    612 H           7.0588   27.4004    2.6565 H     153  UNL153      0.1146
    613 N           6.4875   26.8419    6.5527 N.3   154  UNL154     -0.3437
    614 H           6.6252   26.2484    7.3695 H     154  UNL154      0.1146
    615 H           6.7666   27.7799    6.8368 H     154  UNL154      0.1146
    616 H           7.1772   26.5396    5.8663 H     154  UNL154      0.1146
    617 N           6.7779   29.4841    0.8511 N.3   155  UNL155     -0.3437
    618 H           6.1564   29.8070    1.5913 H     155  UNL155      0.1146
    619 H           7.6840   29.3318    1.2917 H     155  UNL155      0.1146
    620 H           6.4382   28.5621    0.5814 H     155  UNL155      0.1146
    621 N           6.5713   29.2687    3.1453 N.3   156  UNL156     -0.3437
    622 H           6.1296   29.5593    4.0164 H     156  UNL156      0.1146
    623 H           7.2969   29.9583    2.9546 H     156  UNL156      0.1146
    624 H           7.0588   28.3986    3.3542 H     156  UNL156      0.1146
    625 N           6.4875   29.2857    6.5527 N.3   157  UNL157     -0.3437
    626 H           6.6252   28.6922    7.3695 H     157  UNL157      0.1146
    627 H           6.7666   30.2237    6.8368 H     157  UNL157      0.1146
    628 H           7.1772   28.9834    5.8663 H     157  UNL157      0.1146
    629 N           6.5713   32.7125    0.8566 N.3   158  UNL158     -0.3437
    630 H           6.1296   33.0031    1.7277 H     158  UNL158      0.1146
    631 H           7.2969   33.4021    0.6659 H     158  UNL158      0.1146
    632 H           7.0588   31.8424    1.0655 H     158  UNL158      0.1146
    633 N           6.5713   31.5784    3.5227 N.3   159  UNL159     -0.3437
    634 H           6.1296   32.1024    2.7686 H     159  UNL159      0.1146
    635 H           7.2969   31.0129    3.0844 H     159  UNL159      0.1146
    636 H           7.0588   32.2665    4.0948 H     159  UNL159      0.1146
    637 N           7.0577   32.7125    6.6349 N.3   160  UNL160     -0.3437
    638 H           6.6241   33.0031    5.7597 H     160  UNL160      0.1146
    639 H           6.7762   33.4021    7.3303 H     160  UNL160      0.1146
    640 H           6.5986   31.8424    6.9004 H     160  UNL160      0.1146
    641 N           8.7290   -0.1498    0.9364 N.3   161  UNL161     -0.3437
    642 H           8.8567   -0.5330    1.8719 H     161  UNL161      0.1146
    643 H           8.6339    0.8577    1.0561 H     161  UNL161      0.1146
    644 H           9.6136   -0.2926    0.4511 H     161  UNL161      0.1146
    645 N           8.7654   -0.1911    3.5227 N.3   162  UNL162     -0.3437
    646 H           8.3237    0.3329    2.7686 H     162  UNL162      0.1146
    647 H           9.4910   -0.7565    3.0844 H     162  UNL162      0.1146
    648 H           9.2529    0.4970    4.0948 H     162  UNL162      0.1146
    649 N           8.6816   -0.0399    6.5527 N.3   163  UNL163     -0.3437
    650 H           8.8193   -0.6335    7.3695 H     163  UNL163      0.1146
    651 H           8.9607    0.8980    6.8368 H     163  UNL163      0.1146
    652 H           9.3714   -0.3423    5.8663 H     163  UNL163      0.1146
    653 N           8.7654    2.6090    1.4786 N.3   164  UNL164     -0.3437
    654 H           8.3237    1.7372    1.1901 H     164  UNL164      0.1146
    655 H           9.4910    2.3491    2.1452 H     164  UNL164      0.1146
    656 H           9.2529    2.9623    0.6565 H     164  UNL164      0.1146
    657 N           8.6816    2.4039    6.5527 N.3   165  UNL165     -0.3437
    658 H           8.8193    1.8103    7.3695 H     165  UNL165      0.1146
    659 H           8.9607    3.3418    6.8368 H     165  UNL165      0.1146
    660 H           9.3714    2.1015    5.8663 H     165  UNL165      0.1146
    661 N           8.7654    4.8307    0.8566 N.3   166  UNL166     -0.3437
    662 H           8.3237    5.1213    1.7277 H     166  UNL166      0.1146
    663 H           9.4910    5.5203    0.6659 H     166  UNL166      0.1146
    664 H           9.2529    3.9606    1.0655 H     166  UNL166      0.1146
    665 N           8.7654    4.6966    3.5227 N.3   167  UNL167     -0.3437
    666 H           8.3237    5.2205    2.7686 H     167  UNL167      0.1146
    667 H           9.4910    4.1311    3.0844 H     167  UNL167      0.1146
    668 H           9.2529    5.3846    4.0948 H     167  UNL167      0.1146
    669 N           8.6816    4.8477    6.5527 N.3   168  UNL168     -0.3437
    670 H           8.8193    4.2541    7.3695 H     168  UNL168      0.1146
    671 H           8.9607    5.7856    6.8368 H     168  UNL168      0.1146
    672 H           9.3714    4.5453    5.8663 H     168  UNL168      0.1146
    673 N           8.7654    7.4966    1.4786 N.3   169  UNL169     -0.3437
    674 H           8.3237    6.6248    1.1901 H     169  UNL169      0.1146
    675 H           9.4910    7.2367    2.1452 H     169  UNL169      0.1146
    676 H           9.2529    7.8500    0.6565 H     169  UNL169      0.1146
    677 N           8.7654    7.4966    3.7673 N.3   170  UNL170     -0.3437
    678 H           8.3237    6.6248    3.4788 H     170  UNL170      0.1146
    679 H           9.4910    7.2367    4.4339 H     170  UNL170      0.1146
    680 H           9.2529    7.8500    2.9452 H     170  UNL170      0.1146
    681 N           8.7654    9.7183    0.8566 N.3   171  UNL171     -0.3437
    682 H           8.3237   10.0089    1.7277 H     171  UNL171      0.1146
    683 H           9.4910   10.4079    0.6659 H     171  UNL171      0.1146
    684 H           9.2529    8.8482    1.0655 H     171  UNL171      0.1146
    685 N           9.0026    9.5271    3.1737 N.3   172  UNL172     -0.3437
    686 H           8.0581    9.5291    3.5562 H     172  UNL172      0.1146
    687 H           9.1423   10.4503    2.7654 H     172  UNL172      0.1146
    688 H           9.6301    9.4767    3.9750 H     172  UNL172      0.1146
    689 N           8.6816    9.7353    6.5527 N.3   173  UNL173     -0.3437
    690 H           8.8193    9.1417    7.3695 H     173  UNL173      0.1146
    691 H           8.9607   10.6733    6.8368 H     173  UNL173      0.1146
    692 H           9.3714    9.4329    5.8663 H     173  UNL173      0.1146
    693 N           8.8956   12.1621    1.3664 N.3   174  UNL174     -0.3437
    694 H           9.8578   12.4527    1.1990 H     174  UNL174      0.1146
    695 H           8.3086   12.8517    0.8993 H     174  UNL174      0.1146
    696 H           8.7712   11.2920    0.8509 H     174  UNL174      0.1146
    697 N           8.7654   12.1621    3.1453 N.3   175  UNL175     -0.3437
    698 H           8.3237   12.4527    4.0164 H     175  UNL175      0.1146
    699 H           9.4910   12.8517    2.9546 H     175  UNL175      0.1146
    700 H           9.2529   11.2920    3.3542 H     175  UNL175      0.1146
    701 N           8.6816   12.1791    6.5527 N.3   176  UNL176     -0.3437
    702 H           8.8193   11.5855    7.3695 H     176  UNL176      0.1146
    703 H           8.9607   13.1171    6.8368 H     176  UNL176      0.1146
    704 H           9.3714   11.8767    5.8663 H     176  UNL176      0.1146
    705 N           8.7100   14.7921   -0.8973 N.3   177  UNL177     -0.3437
    706 H           9.1261   14.5735    0.0068 H     177  UNL177      0.1146
    707 H           9.4339   15.2707   -1.4314 H     177  UNL177      0.1146
    708 H           8.5631   13.8975   -1.3626 H     177  UNL177      0.1146
    709 N           8.7439   14.4331    1.4036 N.3   178  UNL178     -0.3437
    710 H           8.8023   15.0914    2.1792 H     178  UNL178      0.1146
    711 H           8.6190   14.9979    0.5646 H     178  UNL178      0.1146
    712 H           9.6679   14.0112    1.3231 H     178  UNL178      0.1146
    713 N           8.7654   14.8280    3.7673 N.3   179  UNL179     -0.3437
    714 H           8.3237   13.9562    3.4788 H     179  UNL179      0.1146
    715 H           9.4910   14.5681    4.4339 H     179  UNL179      0.1146
    716 H           9.2529   15.1814    2.9452 H     179  UNL179      0.1146
    717 N           8.7654   17.0497    0.8566 N.3   180  UNL180     -0.3437
    718 H           8.3237   17.3403    1.7277 H     180  UNL180      0.1146
    719 H           9.4910   17.7393    0.6659 H     180  UNL180      0.1146
    720 H           9.2529   16.1796    1.0655 H     180  UNL180      0.1146
    721 N           8.7654   16.9156    3.5227 N.3   181  UNL181     -0.3437
    722 H           8.3237   17.4396    2.7686 H     181  UNL181      0.1146
    723 H           9.4910   16.3501    3.0844 H     181  UNL181      0.1146
    724 H           9.2529   17.6037    4.0948 H     181  UNL181      0.1146
    725 N           8.6816   17.0667    6.5527 N.3   182  UNL182     -0.3437
    726 H           8.8193   16.4732    7.3695 H     182  UNL182      0.1146
    727 H           8.9607   18.0047    6.8368 H     182  UNL182      0.1146
    728 H           9.3714   16.7644    5.8663 H     182  UNL182      0.1146
    729 N           8.7654   19.3594    1.2340 N.3   183  UNL183     -0.3437
    730 H           8.3237   19.8834    0.4799 H     183  UNL183      0.1146
    731 H           9.4910   18.7939    0.7956 H     183  UNL183      0.1146
    732 H           9.2529   20.0475    1.8061 H     183  UNL183      0.1146
    733 N           8.8956   19.4935    3.6552 N.3   184  UNL184     -0.3437
    734 H           9.8578   19.7841    3.4877 H     184  UNL184      0.1146
    735 H           8.3086   20.1831    3.1880 H     184  UNL184      0.1146
    736 H           8.7712   18.6234    3.1396 H     184  UNL184      0.1146
    737 N           8.6816   19.5105    6.5527 N.3   185  UNL185     -0.3437
    738 H           8.8193   18.9170    7.3695 H     185  UNL185      0.1146
    739 H           8.9607   20.4485    6.8368 H     185  UNL185      0.1146
    740 H           9.3714   19.2082    5.8663 H     185  UNL185      0.1146
    741 N           8.7290   21.8445    0.9364 N.3   186  UNL186     -0.3437
    742 H           8.8567   21.4613    1.8719 H     186  UNL186      0.1146
    743 H           8.6339   22.8520    1.0561 H     186  UNL186      0.1146
    744 H           9.6136   21.7016    0.4511 H     186  UNL186      0.1146
    745 N           8.7654   21.8032    3.5227 N.3   187  UNL187     -0.3437
    746 H           8.3237   22.3272    2.7686 H     187  UNL187      0.1146
    747 H           9.4910   21.2377    3.0844 H     187  UNL187      0.1146
    748 H           9.2529   22.4913    4.0948 H     187  UNL187      0.1146
    749 N           8.6816   21.9543    6.5527 N.3   188  UNL188     -0.3437
    750 H           8.8193   21.3608    7.3695 H     188  UNL188      0.1146
    751 H           8.9607   22.8923    6.8368 H     188  UNL188      0.1146
    752 H           9.3714   21.6520    5.8663 H     188  UNL188      0.1146
    753 N           8.7654   24.3811    0.8566 N.3   189  UNL189     -0.3437
    754 H           8.3237   24.6717    1.7277 H     189  UNL189      0.1146
    755 H           9.4910   25.0707    0.6659 H     189  UNL189      0.1146
    756 H           9.2529   23.5110    1.0655 H     189  UNL189      0.1146
    757 N           8.7654   24.2470    3.5227 N.3   190  UNL190     -0.3437
    758 H           8.3237   24.7710    2.7686 H     190  UNL190      0.1146
    759 H           9.4910   23.6815    3.0844 H     190  UNL190      0.1146
    760 H           9.2529   24.9351    4.0948 H     190  UNL190      0.1146
    761 N           8.6816   24.3981    6.5527 N.3   191  UNL191     -0.3437
    762 H           8.8193   23.8046    7.3695 H     191  UNL191      0.1146
    763 H           8.9607   25.3361    6.8368 H     191  UNL191      0.1146
    764 H           9.3714   24.0958    5.8663 H     191  UNL191      0.1146
    765 N           8.8956   26.8249    1.3664 N.3   192  UNL192     -0.3437
    766 H           9.8578   27.1155    1.1990 H     192  UNL192      0.1146
    767 H           8.3086   27.5145    0.8993 H     192  UNL192      0.1146
    768 H           8.7712   25.9548    0.8509 H     192  UNL192      0.1146
    769 N           8.7654   27.0470    3.4786 N.3   193  UNL193     -0.3437
    770 H           8.3237   26.1752    3.1901 H     193  UNL193      0.1146
    771 H           9.4910   26.7871    4.1452 H     193  UNL193      0.1146
    772 H           9.2529   27.4004    2.6565 H     193  UNL193      0.1146
    773 N           8.6816   26.8419    6.5527 N.3   194  UNL194     -0.3437
    774 H           8.8193   26.2484    7.3695 H     194  UNL194      0.1146
    775 H           8.9607   27.7799    6.8368 H     194  UNL194      0.1146
    776 H           9.3714   26.5396    5.8663 H     194  UNL194      0.1146
    777 N           8.7654   29.1346    1.2340 N.3   195  UNL195     -0.3437
    778 H           8.3237   29.6586    0.4799 H     195  UNL195      0.1146
    779 H           9.4910   28.5691    0.7956 H     195  UNL195      0.1146
    780 H           9.2529   29.8227    1.8061 H     195  UNL195      0.1146
    781 N           8.7654   29.2687    3.1453 N.3   196  UNL196     -0.3437
    782 H           8.3237   29.5593    4.0164 H     196  UNL196      0.1146
    783 H           9.4910   29.9583    2.9546 H     196  UNL196      0.1146
    784 H           9.2529   28.3986    3.3542 H     196  UNL196      0.1146
    785 N           8.6816   29.2857    6.5527 N.3   197  UNL197     -0.3437
    786 H           8.8193   28.6922    7.3695 H     197  UNL197      0.1146
    787 H           8.9607   30.2237    6.8368 H     197  UNL197      0.1146
    788 H           9.3714   28.9834    5.8663 H     197  UNL197      0.1146
    789 N           8.7654   32.7125    0.8566 N.3   198  UNL198     -0.3437
    790 H           8.3237   33.0031    1.7277 H     198  UNL198      0.1146
    791 H           9.4910   33.4021    0.6659 H     198  UNL198      0.1146
    792 H           9.2529   31.8424    1.0655 H     198  UNL198      0.1146
    793 N           8.7654   32.7125    3.1453 N.3   199  UNL199     -0.3437
    794 H           8.3237   33.0031    4.0164 H     199  UNL199      0.1146
    795 H           9.4910   33.4021    2.9546 H     199  UNL199      0.1146
    796 H           9.2529   31.8424    3.3542 H     199  UNL199      0.1146
    797 N           8.7654   31.7125    5.4340 N.3   200  UNL200     -0.3437
    798 H           8.3237   32.0031    6.3051 H     200  UNL200      0.1146
    799 H           9.4910   32.4021    5.2433 H     200  UNL200      0.1146
    800 H           9.2529   30.8424    5.6429 H     200  UNL200      0.1146
    801 N          10.9596   -0.0569    0.8566 N.3   201  UNL201     -0.3437
    802 H          10.5179    0.2337    1.7277 H     201  UNL201      0.1146
    803 H          11.6852    0.6327    0.6659 H     201  UNL201      0.1146
    804 H          11.4471   -0.9270    1.0655 H     201  UNL201      0.1146
    805 N          11.1968   -0.2481    3.1737 N.3   202  UNL202     -0.3437
    806 H          10.2523   -0.2461    3.5562 H     202  UNL202      0.1146
    807 H          11.3364    0.6751    2.7654 H     202  UNL202      0.1146
    808 H          11.8242   -0.2986    3.9750 H     202  UNL202      0.1146
    809 N          10.9596    2.6090    1.4786 N.3   203  UNL203     -0.3437
    810 H          10.5179    1.7372    1.1901 H     203  UNL203      0.1146
    811 H          11.6852    2.3491    2.1452 H     203  UNL203      0.1146
    812 H          11.4471    2.9623    0.6565 H     203  UNL203      0.1146
    813 N          10.9596    0.6090    5.7673 N.3   204  UNL204     -0.3437
    814 H          10.5179   -0.2628    5.4788 H     204  UNL204      0.1146
    815 H          11.6852    0.3491    6.4339 H     204  UNL204      0.1146
    816 H          11.4471    0.9623    4.9452 H     204  UNL204      0.1146
    817 N          11.0897    4.8307   -0.9223 N.3   205  UNL205     -0.3437
    818 H          12.0519    5.1213   -1.0897 H     205  UNL205      0.1146
    819 H          10.5027    5.5203   -1.3895 H     205  UNL205      0.1146
    820 H          10.9653    3.9606   -1.4379 H     205  UNL205      0.1146
    821 N          10.9596    4.8307    0.8566 N.3   206  UNL206     -0.3437
    822 H          10.5179    5.1213    1.7277 H     206  UNL206      0.1146
    823 H          11.6852    5.5203    0.6659 H     206  UNL206      0.1146
    824 H          11.4471    3.9606    1.0655 H     206  UNL206      0.1146
    825 N          11.1968    4.6395    3.1737 N.3   207  UNL207     -0.3437
    826 H          10.2523    4.6415    3.5562 H     207  UNL207      0.1146
    827 H          11.3364    5.5627    2.7654 H     207  UNL207      0.1146
    828 H          11.8242    4.5891    3.9750 H     207  UNL207      0.1146
    829 N          10.9596    3.0528    5.7673 N.3   208  UNL208     -0.3437
    830 H          10.5179    2.1810    5.4788 H     208  UNL208      0.1146
    831 H          11.6852    2.7929    6.4339 H     208  UNL208      0.1146
    832 H          11.4471    3.4061    4.9452 H     208  UNL208      0.1146
    833 N          10.9596    7.4966    1.4786 N.3   209  UNL209     -0.3437
    834 H          10.5179    6.6248    1.1901 H     209  UNL209      0.1146
    835 H          11.6852    7.2367    2.1452 H     209  UNL209      0.1146
    836 H          11.4471    7.8500    0.6565 H     209  UNL209      0.1146
    837 N          10.9380    5.1017    5.6923 N.3   210  UNL210     -0.3437
    838 H          10.9964    5.7600    6.4679 H     210  UNL210      0.1146
    839 H          10.8131    5.6665    4.8533 H     210  UNL210      0.1146
    840 H          11.8621    4.6798    5.6118 H     210  UNL210      0.1146
    841 N          10.9596    9.7183    0.8566 N.3   211  UNL211     -0.3437
    842 H          10.5179   10.0089    1.7277 H     211  UNL211      0.1146
    843 H          11.6852   10.4079    0.6659 H     211  UNL211      0.1146
    844 H          11.4471    8.8482    1.0655 H     211  UNL211      0.1146
    845 N          10.9596    9.5842    3.5227 N.3   212  UNL212     -0.3437
    846 H          10.5179   10.1081    2.7686 H     212  UNL212      0.1146
    847 H          11.6852    9.0187    3.0844 H     212  UNL212      0.1146
    848 H          11.4471   10.2722    4.0948 H     212  UNL212      0.1146
    849 N          10.8758    9.7353    6.5527 N.3   213  UNL213     -0.3437
    850 H          11.0135    9.1417    7.3695 H     213  UNL213      0.1146
    851 H          11.1549   10.6733    6.8368 H     213  UNL213      0.1146
    852 H          11.5655    9.4329    5.8663 H     213  UNL213      0.1146
    853 N          10.9596   12.3842    1.1899 N.3   214  UNL214     -0.3437
    854 H          10.5179   11.5124    0.9014 H     214  UNL214      0.1146
    855 H          11.6852   12.1243    1.8565 H     214  UNL214      0.1146
    856 H          11.4471   12.7376    0.3678 H     214  UNL214      0.1146
    857 N          10.9596   12.3842    3.4786 N.3   215  UNL215     -0.3437
    858 H          10.5179   11.5124    3.1901 H     215  UNL215      0.1146
    859 H          11.6852   12.1243    4.1452 H     215  UNL215      0.1146
    860 H          11.4471   12.7376    2.6565 H     215  UNL215      0.1146
    861 N          10.8758   12.1791    6.5527 N.3   216  UNL216     -0.3437
    862 H          11.0135   11.5855    7.3695 H     216  UNL216      0.1146
    863 H          11.1549   13.1171    6.8368 H     216  UNL216      0.1146
    864 H          11.5655   11.8767    5.8663 H     216  UNL216      0.1146
    865 N          10.9596   14.8280    1.4786 N.3   217  UNL217     -0.3437
    866 H          10.5179   13.9562    1.1901 H     217  UNL217      0.1146
    867 H          11.6852   14.5681    2.1452 H     217  UNL217      0.1146
    868 H          11.4471   15.1814    0.6565 H     217  UNL217      0.1146
    869 N          10.9596   14.8280    3.7673 N.3   218  UNL218     -0.3437
    870 H          10.5179   13.9562    3.4788 H     218  UNL218      0.1146
    871 H          11.6852   14.5681    4.4339 H     218  UNL218      0.1146
    872 H          11.4471   15.1814    2.9452 H     218  UNL218      0.1146
    873 N          10.9596   17.2718    1.1899 N.3   219  UNL219     -0.3437
    874 H          10.5179   16.4000    0.9014 H     219  UNL219      0.1146
    875 H          11.6852   17.0119    1.8565 H     219  UNL219      0.1146
    876 H          11.4471   17.6252    0.3678 H     219  UNL219      0.1146
    877 N          10.9596   17.2718    3.4786 N.3   220  UNL220     -0.3437
    878 H          10.5179   16.4000    3.1901 H     220  UNL220      0.1146
    879 H          11.6852   17.0119    4.1452 H     220  UNL220      0.1146
    880 H          11.4471   17.6252    2.6565 H     220  UNL220      0.1146
    881 N          10.8758   17.0667    6.5527 N.3   221  UNL221     -0.3437
    882 H          11.0135   16.4732    7.3695 H     221  UNL221      0.1146
    883 H          11.1549   18.0047    6.8368 H     221  UNL221      0.1146
    884 H          11.5655   16.7644    5.8663 H     221  UNL221      0.1146
    885 N          10.9041   19.6797    1.3914 N.3   222  UNL222     -0.3437
    886 H          11.3203   19.4611    2.2955 H     222  UNL222      0.1146
    887 H          11.6281   20.1583    0.8574 H     222  UNL222      0.1146
    888 H          10.7572   18.7851    0.9261 H     222  UNL222      0.1146
    889 N          11.2899   19.3830    3.4340 N.3   223  UNL223     -0.3437
    890 H          11.3214   18.8552    4.3051 H     223  UNL223      0.1146
    891 H          10.3032   19.5516    3.2433 H     223  UNL223      0.1146
    892 H          11.6952   20.2943    3.6429 H     223  UNL223      0.1146
    893 N          11.0897   21.9373   -0.9223 N.3   224  UNL224     -0.3437
    894 H          12.0519   22.2279   -1.0897 H     224  UNL224      0.1146
    895 H          10.5027   22.6269   -1.3895 H     224  UNL224      0.1146
    896 H          10.9653   21.0672   -1.4379 H     224  UNL224      0.1146
    897 N          10.9596   21.9373    0.8566 N.3   225  UNL225     -0.3437
    898 H          10.5179   22.2279    1.7277 H     225  UNL225      0.1146
    899 H          11.6852   22.6269    0.6659 H     225  UNL225      0.1146
    900 H          11.4471   21.0672    1.0655 H     225  UNL225      0.1146
    901 N          11.1968   21.7462    3.1737 N.3   226  UNL226     -0.3437
    902 H          10.2523   21.7481    3.5562 H     226  UNL226      0.1146
    903 H          11.3364   22.6693    2.7654 H     226  UNL226      0.1146
    904 H          11.8242   21.6957    3.9750 H     226  UNL226      0.1146
    905 N          10.8758   21.9543    6.5527 N.3   227  UNL227     -0.3437
    906 H          11.0135   21.3608    7.3695 H     227  UNL227      0.1146
    907 H          11.1549   22.8923    6.8368 H     227  UNL227      0.1146
    908 H          11.5655   21.6520    5.8663 H     227  UNL227      0.1146
    909 N          10.9596   24.2470    1.2340 N.3   228  UNL228     -0.3437
    910 H          10.5179   24.7710    0.4799 H     228  UNL228      0.1146
    911 H          11.6852   23.6815    0.7956 H     228  UNL228      0.1146
    912 H          11.4471   24.9351    1.8061 H     228  UNL228      0.1146
    913 N          10.9596   24.6032    3.4786 N.3   229  UNL229     -0.3437
    914 H          10.5179   23.7314    3.1901 H     229  UNL229      0.1146
    915 H          11.6852   24.3433    4.1452 H     229  UNL229      0.1146
    916 H          11.4471   24.9566    2.6565 H     229  UNL229      0.1146
    917 N          10.8758   24.3981    6.5527 N.3   230  UNL230     -0.3437
    918 H          11.0135   23.8046    7.3695 H     230  UNL230      0.1146
    919 H          11.1549   25.3361    6.8368 H     230  UNL230      0.1146
    920 H          11.5655   24.0958    5.8663 H     230  UNL230      0.1146
    921 N          10.9596   27.0470    1.1899 N.3   231  UNL231     -0.3437
    922 H          10.5179   26.1752    0.9014 H     231  UNL231      0.1146
    923 H          11.6852   26.7871    1.8565 H     231  UNL231      0.1146
    924 H          11.4471   27.4004    0.3678 H     231  UNL231      0.1146
    925 N          10.9596   27.0470    3.4786 N.3   232  UNL232     -0.3437
    926 H          10.5179   26.1752    3.1901 H     232  UNL232      0.1146
    927 H          11.6852   26.7871    4.1452 H     232  UNL232      0.1146
    928 H          11.4471   27.4004    2.6565 H     232  UNL232      0.1146
    929 N          10.8758   26.8419    6.5527 N.3   233  UNL233     -0.3437
    930 H          11.0135   26.2484    7.3695 H     233  UNL233      0.1146
    931 H          11.1549   27.7799    6.8368 H     233  UNL233      0.1146
    932 H          11.5655   26.5396    5.8663 H     233  UNL233      0.1146
    933 N          10.9596   29.1346    3.5227 N.3   234  UNL234     -0.3437
    934 H          10.5179   29.6586    2.7686 H     234  UNL234      0.1146
    935 H          11.6852   28.5691    3.0844 H     234  UNL234      0.1146
    936 H          11.4471   29.8227    4.0948 H     234  UNL234      0.1146
    937 N          10.8758   29.2857    6.5527 N.3   235  UNL235     -0.3437
    938 H          11.0135   28.6922    7.3695 H     235  UNL235      0.1146
    939 H          11.1549   30.2237    6.8368 H     235  UNL235      0.1146
    940 H          11.5655   28.9834    5.8663 H     235  UNL235      0.1146
    941 N          10.9596   32.7125    0.8566 N.3   236  UNL236     -0.3437
    942 H          10.5179   33.0031    1.7277 H     236  UNL236      0.1146
    943 H          11.6852   33.4021    0.6659 H     236  UNL236      0.1146
    944 H          11.4471   31.8424    1.0655 H     236  UNL236      0.1146
    945 N          10.9596   32.7125    3.1453 N.3   237  UNL237     -0.3437
    946 H          10.5179   33.0031    4.0164 H     237  UNL237      0.1146
    947 H          11.6852   33.4021    2.9546 H     237  UNL237      0.1146
    948 H          11.4471   31.8424    3.3542 H     237  UNL237      0.1146
    949 N          10.9596   31.7125    5.4340 N.3   238  UNL238     -0.3437
    950 H          10.5179   32.0031    6.3051 H     238  UNL238      0.1146
    951 H          11.6852   32.4021    5.2433 H     238  UNL238      0.1146
    952 H          11.4471   30.8424    5.6429 H     238  UNL238      0.1146
    953 N          13.1537    0.1652    1.1899 N.3   239  UNL239     -0.3437
    954 H          12.7120   -0.7066    0.9014 H     239  UNL239      0.1146
    955 H          13.8793   -0.0947    1.8565 H     239  UNL239      0.1146
    956 H          13.6412    0.5185    0.3678 H     239  UNL239      0.1146
    957 N          13.1537    0.1652    3.4786 N.3   240  UNL240     -0.3437
    958 H          12.7120   -0.7066    3.1901 H     240  UNL240      0.1146
    959 H          13.8793   -0.0947    4.1452 H     240  UNL240      0.1146
    960 H          13.6412    0.5185    2.6565 H     240  UNL240      0.1146
    961 N          13.3603    2.6023    0.8511 N.3   241  UNL241     -0.3437
    962 H          12.7388    2.9251    1.5913 H     241  UNL241      0.1146
    963 H          14.2665    2.4499    1.2917 H     241  UNL241      0.1146
    964 H          13.0206    1.6802    0.5814 H     241  UNL241      0.1146
    965 N          13.3603    2.6023    3.1398 N.3   242  UNL242     -0.3437
    966 H          12.7388    2.9251    3.8800 H     242  UNL242      0.1146
    967 H          14.2665    2.4499    3.5804 H     242  UNL242      0.1146
    968 H          13.0206    1.6802    2.8701 H     242  UNL242      0.1146
    969 N          13.0577    0.3941    6.5967 N.3   243  UNL243     -0.3437
    970 H          13.3239    1.3125    6.9489 H     243  UNL243      0.1146
    971 H          13.6418    0.2270    5.7785 H     243  UNL243      0.1146
    972 H          13.3628   -0.2761    7.3011 H     243  UNL243      0.1146
    973 N          13.1537    4.8307    0.8566 N.3   244  UNL244     -0.3437
    974 H          12.7120    5.1213    1.7277 H     244  UNL244      0.1146
    975 H          13.8793    5.5203    0.6659 H     244  UNL244      0.1146
    976 H          13.6412    3.9606    1.0655 H     244  UNL244      0.1146
    977 N          13.1537    4.6966    3.5227 N.3   245  UNL245     -0.3437
    978 H          12.7120    5.2205    2.7686 H     245  UNL245      0.1146
    979 H          13.8793    4.1311    3.0844 H     245  UNL245      0.1146
    980 H          13.6412    5.3846    4.0948 H     245  UNL245      0.1146
    981 N          13.0577    2.8379    6.5967 N.3   246  UNL246     -0.3437
    982 H          13.3239    3.7563    6.9489 H     246  UNL246      0.1146
    983 H          13.6418    2.6708    5.7785 H     246  UNL246      0.1146
    984 H          13.3628    2.1677    7.3011 H     246  UNL246      0.1146
    985 N          13.1537    7.4966    1.4786 N.3   247  UNL247     -0.3437
    986 H          12.7120    6.6248    1.1901 H     247  UNL247      0.1146
    987 H          13.8793    7.2367    2.1452 H     247  UNL247      0.1146
    988 H          13.6412    7.8500    0.6565 H     247  UNL247      0.1146
    989 N          13.1537    5.1404    5.8114 N.3   248  UNL248     -0.3437
    990 H          12.7120    5.6643    5.0573 H     248  UNL248      0.1146
    991 H          13.8793    4.5749    5.3731 H     248  UNL248      0.1146
    992 H          13.6412    5.8284    6.3835 H     248  UNL248      0.1146
    993 N          13.1537    9.7183    0.8566 N.3   249  UNL249     -0.3437
    994 H          12.7120   10.0089    1.7277 H     249  UNL249      0.1146
    995 H          13.8793   10.4079    0.6659 H     249  UNL249      0.1146
    996 H          13.6412    8.8482    1.0655 H     249  UNL249      0.1146
    997 N          13.3909    9.5271    3.1737 N.3   250  UNL250     -0.3437
    998 H          12.4464    9.5291    3.5562 H     250  UNL250      0.1146
    999 H          13.5305   10.4503    2.7654 H     250  UNL250      0.1146
   1000 H          14.0184    9.4767    3.9750 H     250  UNL250      0.1146
   1001 N          13.1537    7.9404    5.7673 N.3   251  UNL251     -0.3437
   1002 H          12.7120    7.0686    5.4788 H     251  UNL251      0.1146
   1003 H          13.8793    7.6805    6.4339 H     251  UNL251      0.1146
   1004 H          13.6412    8.2938    4.9452 H     251  UNL251      0.1146
   1005 N          13.1537   12.3842    1.4786 N.3   252  UNL252     -0.3437
   1006 H          12.7120   11.5124    1.1901 H     252  UNL252      0.1146
   1007 H          13.8793   12.1243    2.1452 H     252  UNL252      0.1146
   1008 H          13.6412   12.7376    0.6565 H     252  UNL252      0.1146
   1009 N          13.1537   10.3842    5.7673 N.3   253  UNL253     -0.3437
   1010 H          12.7120    9.5124    5.4788 H     253  UNL253      0.1146
   1011 H          13.8793   10.1243    6.4339 H     253  UNL253      0.1146
   1012 H          13.6412   10.7376    4.9452 H     253  UNL253      0.1146
   1013 N          13.1537   14.6059    0.8566 N.3   254  UNL254     -0.3437
   1014 H          12.7120   14.8965    1.7277 H     254  UNL254      0.1146
   1015 H          13.8793   15.2955    0.6659 H     254  UNL254      0.1146
   1016 H          13.6412   13.7358    1.0655 H     254  UNL254      0.1146
   1017 N          13.1537   14.4718    3.5227 N.3   255  UNL255     -0.3437
   1018 H          12.7120   14.9957    2.7686 H     255  UNL255      0.1146
   1019 H          13.8793   13.9063    3.0844 H     255  UNL255      0.1146
   1020 H          13.6412   15.1599    4.0948 H     255  UNL255      0.1146
   1021 N          13.0699   12.6229    6.5527 N.3   256  UNL256     -0.3437
   1022 H          13.2076   12.0293    7.3695 H     256  UNL256      0.1146
   1023 H          13.3490   13.5609    6.8368 H     256  UNL256      0.1146
   1024 H          13.7597   12.3206    5.8663 H     256  UNL256      0.1146
   1025 N          13.1537   17.2718    1.4786 N.3   257  UNL257     -0.3437
   1026 H          12.7120   16.4000    1.1901 H     257  UNL257      0.1146
   1027 H          13.8793   17.0119    2.1452 H     257  UNL257      0.1146
   1028 H          13.6412   17.6252    0.6565 H     257  UNL257      0.1146
   1029 N          13.1537   15.2718    5.7673 N.3   258  UNL258     -0.3437
   1030 H          12.7120   14.4000    5.4788 H     258  UNL258      0.1146
   1031 H          13.8793   15.0119    6.4339 H     258  UNL258      0.1146
   1032 H          13.6412   15.6252    4.9452 H     258  UNL258      0.1146
   1033 N          13.3603   19.7089    0.8511 N.3   259  UNL259     -0.3437
   1034 H          12.7388   20.0318    1.5913 H     259  UNL259      0.1146
   1035 H          14.2665   19.5566    1.2917 H     259  UNL259      0.1146
   1036 H          13.0206   18.7868    0.5814 H     259  UNL259      0.1146
   1037 N          13.3603   19.7089    3.1398 N.3   260  UNL260     -0.3437
   1038 H          12.7388   20.0318    3.8800 H     260  UNL260      0.1146
   1039 H          14.2665   19.5566    3.5804 H     260  UNL260      0.1146
   1040 H          13.0206   18.7868    2.8701 H     260  UNL260      0.1146
   1041 N          13.1537   17.7156    5.7673 N.3   261  UNL261     -0.3437
   1042 H          12.7120   16.8438    5.4788 H     261  UNL261      0.1146
   1043 H          13.8793   17.4557    6.4339 H     261  UNL261      0.1146
   1044 H          13.6412   18.0690    4.9452 H     261  UNL261      0.1146
   1045 N          13.0699   21.9543    0.9753 N.3   262  UNL262     -0.3437
   1046 H          13.2076   21.3608    1.7920 H     262  UNL262      0.1146
   1047 H          13.3490   22.8923    1.2594 H     262  UNL262      0.1146
   1048 H          13.7597   21.6520    0.2888 H     262  UNL262      0.1146
   1049 N          13.3603   22.1527    3.1398 N.3   263  UNL263     -0.3437
   1050 H          12.7388   22.4756    3.8800 H     263  UNL263      0.1146
   1051 H          14.2665   22.0004    3.5804 H     263  UNL263      0.1146
   1052 H          13.0206   21.2306    2.8701 H     263  UNL263      0.1146
   1053 N          13.1537   20.1594    5.7673 N.3   264  UNL264     -0.3437
   1054 H          12.7120   19.2876    5.4788 H     264  UNL264      0.1146
   1055 H          13.8793   19.8995    6.4339 H     264  UNL264      0.1146
   1056 H          13.6412   20.5128    4.9452 H     264  UNL264      0.1146
   1057 N          13.1537   24.2470    1.5227 N.3   265  UNL265     -0.3437
   1058 H          12.7120   24.7710    0.7686 H     265  UNL265      0.1146
   1059 H          13.8793   23.6815    1.0844 H     265  UNL265      0.1146
   1060 H          13.6412   24.9351    2.0948 H     265  UNL265      0.1146
   1061 N          13.1537   22.2470    5.8114 N.3   266  UNL266     -0.3437
   1062 H          12.7120   22.7710    5.0573 H     266  UNL266      0.1146
   1063 H          13.8793   21.6815    5.3731 H     266  UNL266      0.1146
   1064 H          13.6412   22.9351    6.3835 H     266  UNL266      0.1146
   1065 N          13.1537   27.0470    1.1899 N.3   267  UNL267     -0.3437
   1066 H          12.7120   26.1752    0.9014 H     267  UNL267      0.1146
   1067 H          13.8793   26.7871    1.8565 H     267  UNL267      0.1146
   1068 H          13.6412   27.4004    0.3678 H     267  UNL267      0.1146
   1069 N          13.1537   27.0470    3.4786 N.3   268  UNL268     -0.3437
   1070 H          12.7120   26.1752    3.1901 H     268  UNL268      0.1146
   1071 H          13.8793   26.7871    4.1452 H     268  UNL268      0.1146
   1072 H          13.6412   27.4004    2.6565 H     268  UNL268      0.1146
   1073 N          13.1537   25.0470    5.7673 N.3   269  UNL269     -0.3437
   1074 H          12.7120   24.1752    5.4788 H     269  UNL269      0.1146
   1075 H          13.8793   24.7871    6.4339 H     269  UNL269      0.1146
   1076 H          13.6412   25.4004    4.9452 H     269  UNL269      0.1146
   1077 N          13.3603   29.4841    0.8511 N.3   270  UNL270     -0.3437
   1078 H          12.7388   29.8070    1.5913 H     270  UNL270      0.1146
   1079 H          14.2665   29.3318    1.2917 H     270  UNL270      0.1146
   1080 H          13.0206   28.5621    0.5814 H     270  UNL270      0.1146
   1081 N          13.3603   29.4841    3.1398 N.3   271  UNL271     -0.3437
   1082 H          12.7388   29.8070    3.8800 H     271  UNL271      0.1146
   1083 H          14.2665   29.3318    3.5804 H     271  UNL271      0.1146
   1084 H          13.0206   28.5621    2.8701 H     271  UNL271      0.1146
   1085 N          13.4872   27.0427    5.7140 N.3   272  UNL272     -0.3437
   1086 H          12.4996   27.0109    5.9629 H     272  UNL272      0.1146
   1087 H          13.5202   27.2961    4.7276 H     272  UNL272      0.1146
   1088 H          13.8792   27.8352    6.2207 H     272  UNL272      0.1146
   1089 N          13.1537   32.7125    0.8566 N.3   273  UNL273     -0.3437
   1090 H          12.7120   33.0031    1.7277 H     273  UNL273      0.1146
   1091 H          13.8793   33.4021    0.6659 H     273  UNL273      0.1146
   1092 H          13.6412   31.8424    1.0655 H     273  UNL273      0.1146
   1093 N          13.1537   31.7125    3.1453 N.3   274  UNL274     -0.3437
   1094 H          12.7120   32.0031    4.0164 H     274  UNL274      0.1146
   1095 H          13.8793   32.4021    2.9546 H     274  UNL274      0.1146
   1096 H          13.6412   30.8424    3.3542 H     274  UNL274      0.1146
   1097 N          13.6401   32.7125    6.6349 N.3   275  UNL275     -0.3437
   1098 H          13.2065   33.0031    5.7597 H     275  UNL275      0.1146
   1099 H          13.3586   33.4021    7.3303 H     275  UNL275      0.1146
   1100 H          13.1810   31.8424    6.9004 H     275  UNL275      0.1146
   1101 N          15.3114   -0.1498    0.9364 N.3   276  UNL276     -0.3437
   1102 H          15.4391   -0.5330    1.8719 H     276  UNL276      0.1146
   1103 H          15.2163    0.8577    1.0561 H     276  UNL276      0.1146
   1104 H          16.1960   -0.2926    0.4511 H     276  UNL276      0.1146
   1105 N          15.3478    0.1652    3.4786 N.3   277  UNL277     -0.3437
   1106 H          14.9061   -0.7066    3.1901 H     277  UNL277      0.1146
   1107 H          16.0734   -0.0947    4.1452 H     277  UNL277      0.1146
   1108 H          15.8353    0.5185    2.6565 H     277  UNL277      0.1146
   1109 N          15.2641    2.4039    0.9753 N.3   278  UNL278     -0.3437
   1110 H          15.4018    1.8103    1.7920 H     278  UNL278      0.1146
   1111 H          15.5432    3.3418    1.2594 H     278  UNL278      0.1146
   1112 H          15.9538    2.1015    0.2888 H     278  UNL278      0.1146
   1113 N          15.3478    2.2528    3.5227 N.3   279  UNL279     -0.3437
   1114 H          14.9061    2.7767    2.7686 H     279  UNL279      0.1146
   1115 H          16.0734    1.6873    3.0844 H     279  UNL279      0.1146
   1116 H          15.8353    2.9408    4.0948 H     279  UNL279      0.1146
   1117 N          13.6782    2.2764    5.4340 N.3   280  UNL280     -0.3437
   1118 H          13.7097    1.7486    6.3051 H     280  UNL280      0.1146
   1119 H          12.6914    2.4450    5.2433 H     280  UNL280      0.1146
   1120 H          14.0835    3.1876    5.6429 H     280  UNL280      0.1146
   1121 N          15.4780    4.8307   -0.9223 N.3   281  UNL281     -0.3437
   1122 H          16.4402    5.1213   -1.0897 H     281  UNL281      0.1146
   1123 H          14.8910    5.5203   -1.3895 H     281  UNL281      0.1146
   1124 H          15.3536    3.9606   -1.4379 H     281  UNL281      0.1146
   1125 N          15.3478    4.8307    0.8566 N.3   282  UNL282     -0.3437
   1126 H          14.9061    5.1213    1.7277 H     282  UNL282      0.1146
   1127 H          16.0734    5.5203    0.6659 H     282  UNL282      0.1146
   1128 H          15.8353    3.9606    1.0655 H     282  UNL282      0.1146
   1129 N          15.5850    4.6395    3.1737 N.3   283  UNL283     -0.3437
   1130 H          14.6406    4.6415    3.5562 H     283  UNL283      0.1146
   1131 H          15.7247    5.5627    2.7654 H     283  UNL283      0.1146
   1132 H          16.2125    4.5891    3.9750 H     283  UNL283      0.1146
   1133 N          15.3478    5.0528    5.7673 N.3   284  UNL284     -0.3437
   1134 H          14.9061    4.1810    5.4788 H     284  UNL284      0.1146
   1135 H          16.0734    4.7929    6.4339 H     284  UNL284      0.1146
   1136 H          15.8353    5.4061    4.9452 H     284  UNL284      0.1146
   1137 N          15.3478    7.4966    1.4786 N.3   285  UNL285     -0.3437
   1138 H          14.9061    6.6248    1.1901 H     285  UNL285      0.1146
   1139 H          16.0734    7.2367    2.1452 H     285  UNL285      0.1146
   1140 H          15.8353    7.8500    0.6565 H     285  UNL285      0.1146
   1141 N          15.3478    7.4966    3.7673 N.3   286  UNL286     -0.3437
   1142 H          14.9061    6.6248    3.4788 H     286  UNL286      0.1146
   1143 H          16.0734    7.2367    4.4339 H     286  UNL286      0.1146
   1144 H          15.8353    7.8500    2.9452 H     286  UNL286      0.1146
   1145 N          15.3478    9.7183    0.8566 N.3   287  UNL287     -0.3437
   1146 H          14.9061   10.0089    1.7277 H     287  UNL287      0.1146
   1147 H          16.0734   10.4079    0.6659 H     287  UNL287      0.1146
   1148 H          15.8353    8.8482    1.0655 H     287  UNL287      0.1146
   1149 N          15.3478    9.5842    3.5227 N.3   288  UNL288     -0.3437
   1150 H          14.9061   10.1081    2.7686 H     288  UNL288      0.1146
   1151 H          16.0734    9.0187    3.0844 H     288  UNL288      0.1146
   1152 H          15.8353   10.2722    4.0948 H     288  UNL288      0.1146
   1153 N          15.2641    9.7353    6.5527 N.3   289  UNL289     -0.3437
   1154 H          15.4018    9.1417    7.3695 H     289  UNL289      0.1146
   1155 H          15.5432   10.6733    6.8368 H     289  UNL289      0.1146
   1156 H          15.9538    9.4329    5.8663 H     289  UNL289      0.1146
   1157 N          15.5544   12.3775    0.8511 N.3   290  UNL290     -0.3437
   1158 H          14.9330   12.7004    1.5913 H     290  UNL290      0.1146
   1159 H          16.4606   12.2252    1.2917 H     290  UNL290      0.1146
   1160 H          15.2148   11.4554    0.5814 H     290  UNL290      0.1146
   1161 N          15.5544   12.3775    3.1398 N.3   291  UNL291     -0.3437
   1162 H          14.9330   12.7004    3.8800 H     291  UNL291      0.1146
   1163 H          16.4606   12.2252    3.5804 H     291  UNL291      0.1146
   1164 H          15.2148   11.4554    2.8701 H     291  UNL291      0.1146
   1165 N          15.2641   12.1791    6.5527 N.3   292  UNL292     -0.3437
   1166 H          15.4018   11.5855    7.3695 H     292  UNL292      0.1146
   1167 H          15.5432   13.1171    6.8368 H     292  UNL292      0.1146
   1168 H          15.9538   11.8767    5.8663 H     292  UNL292      0.1146
   1169 N          15.2641   14.6229    0.9753 N.3   293  UNL293     -0.3437
   1170 H          15.4018   14.0293    1.7920 H     293  UNL293      0.1146
   1171 H          15.5432   15.5609    1.2594 H     293  UNL293      0.1146
   1172 H          15.9538   14.3206    0.2888 H     293  UNL293      0.1146
   1173 N          15.5544   14.8213    3.1398 N.3   294  UNL294     -0.3437
   1174 H          14.9330   15.1442    3.8800 H     294  UNL294      0.1146
   1175 H          16.4606   14.6690    3.5804 H     294  UNL294      0.1146
   1176 H          15.2148   13.8992    2.8701 H     294  UNL294      0.1146
   1177 N          15.2641   14.6229    6.5527 N.3   295  UNL295     -0.3437
   1178 H          15.4018   14.0293    7.3695 H     295  UNL295      0.1146
   1179 H          15.5432   15.5609    6.8368 H     295  UNL295      0.1146
   1180 H          15.9538   14.3206    5.8663 H     295  UNL295      0.1146
   1181 N          15.3478   17.0497    0.8566 N.3   296  UNL296     -0.3437
   1182 H          14.9061   17.3403    1.7277 H     296  UNL296      0.1146
   1183 H          16.0734   17.7393    0.6659 H     296  UNL296      0.1146
   1184 H          15.8353   16.1796    1.0655 H     296  UNL296      0.1146
   1185 N          15.3478   16.9156    3.5227 N.3   297  UNL297     -0.3437
   1186 H          14.9061   17.4396    2.7686 H     297  UNL297      0.1146
   1187 H          16.0734   16.3501    3.0844 H     297  UNL297      0.1146
   1188 H          15.8353   17.6037    4.0948 H     297  UNL297      0.1146
   1189 N          15.2641   17.0667    6.5527 N.3   298  UNL298     -0.3437
   1190 H          15.4018   16.4732    7.3695 H     298  UNL298      0.1146
   1191 H          15.5432   18.0047    6.8368 H     298  UNL298      0.1146
   1192 H          15.9538   16.7644    5.8663 H     298  UNL298      0.1146
   1193 N          15.4780   19.4935    1.3664 N.3   299  UNL299     -0.3437
   1194 H          16.4402   19.7841    1.1990 H     299  UNL299      0.1146
   1195 H          14.8910   20.1831    0.8993 H     299  UNL299      0.1146
   1196 H          15.3536   18.6234    0.8509 H     299  UNL299      0.1146
   1197 N          15.3478   19.4935    3.1453 N.3   300  UNL300     -0.3437
   1198 H          14.9061   19.7841    4.0164 H     300  UNL300      0.1146
   1199 H          16.0734   20.1831    2.9546 H     300  UNL300      0.1146
   1200 H          15.8353   18.6234    3.3542 H     300  UNL300      0.1146
   1201 N          15.2641   19.5105    6.5527 N.3   301  UNL301     -0.3437
   1202 H          15.4018   18.9170    7.3695 H     301  UNL301      0.1146
   1203 H          15.5432   20.4485    6.8368 H     301  UNL301      0.1146
   1204 H          15.9538   19.2082    5.8663 H     301  UNL301      0.1146
   1205 N          15.5544   22.1527    0.8511 N.3   302  UNL302     -0.3437
   1206 H          14.9330   22.4756    1.5913 H     302  UNL302      0.1146
   1207 H          16.4606   22.0004    1.2917 H     302  UNL302      0.1146
   1208 H          15.2148   21.2306    0.5814 H     302  UNL302      0.1146
   1209 N          15.5544   22.1527    3.1398 N.3   303  UNL303     -0.3437
   1210 H          14.9330   22.4756    3.8800 H     303  UNL303      0.1146
   1211 H          16.4606   22.0004    3.5804 H     303  UNL303      0.1146
   1212 H          15.2148   21.2306    2.8701 H     303  UNL303      0.1146
   1213 N          15.2641   21.9543    6.5527 N.3   304  UNL304     -0.3437
   1214 H          15.4018   21.3608    7.3695 H     304  UNL304      0.1146
   1215 H          15.5432   22.8923    6.8368 H     304  UNL304      0.1146
   1216 H          15.9538   21.6520    5.8663 H     304  UNL304      0.1146
   1217 N          15.5544   24.5965    0.8511 N.3   305  UNL305     -0.3437
   1218 H          14.9330   24.9194    1.5913 H     305  UNL305      0.1146
   1219 H          16.4606   24.4442    1.2917 H     305  UNL305      0.1146
   1220 H          15.2148   23.6744    0.5814 H     305  UNL305      0.1146
   1221 N          15.5544   24.5965    3.1398 N.3   306  UNL306     -0.3437
   1222 H          14.9330   24.9194    3.8800 H     306  UNL306      0.1146
   1223 H          16.4606   24.4442    3.5804 H     306  UNL306      0.1146
   1224 H          15.2148   23.6744    2.8701 H     306  UNL306      0.1146
   1225 N          15.2641   24.3981    6.5527 N.3   307  UNL307     -0.3437
   1226 H          15.4018   23.8046    7.3695 H     307  UNL307      0.1146
   1227 H          15.5432   25.3361    6.8368 H     307  UNL307      0.1146
   1228 H          15.9538   24.0958    5.8663 H     307  UNL307      0.1146
   1229 N          15.3478   27.0470    1.1899 N.3   308  UNL308     -0.3437
   1230 H          14.9061   26.1752    0.9014 H     308  UNL308      0.1146
   1231 H          16.0734   26.7871    1.8565 H     308  UNL308      0.1146
   1232 H          15.8353   27.4004    0.3678 H     308  UNL308      0.1146
   1233 N          15.3478   27.0470    3.4786 N.3   309  UNL309     -0.3437
   1234 H          14.9061   26.1752    3.1901 H     309  UNL309      0.1146
   1235 H          16.0734   26.7871    4.1452 H     309  UNL309      0.1146
   1236 H          15.8353   27.4004    2.6565 H     309  UNL309      0.1146
   1237 N          15.2641   26.8419    6.5527 N.3   310  UNL310     -0.3437
   1238 H          15.4018   26.2484    7.3695 H     310  UNL310      0.1146
   1239 H          15.5432   27.7799    6.8368 H     310  UNL310      0.1146
   1240 H          15.9538   26.5396    5.8663 H     310  UNL310      0.1146
   1241 N          15.2641   29.2857    0.9753 N.3   311  UNL311     -0.3437
   1242 H          15.4018   28.6922    1.7920 H     311  UNL311      0.1146
   1243 H          15.5432   30.2237    1.2594 H     311  UNL311      0.1146
   1244 H          15.9538   28.9834    0.2888 H     311  UNL311      0.1146
   1245 N          15.4780   29.2687    3.6552 N.3   312  UNL312     -0.3437
   1246 H          16.4402   29.5593    3.4877 H     312  UNL312      0.1146
   1247 H          14.8910   29.9583    3.1880 H     312  UNL312      0.1146
   1248 H          15.3536   28.3986    3.1396 H     312  UNL312      0.1146
   1249 N          15.2641   29.2857    6.5527 N.3   313  UNL313     -0.3437
   1250 H          15.4018   28.6922    7.3695 H     313  UNL313      0.1146
   1251 H          15.5432   30.2237    6.8368 H     313  UNL313      0.1146
   1252 H          15.9538   28.9834    5.8663 H     313  UNL313      0.1146
   1253 N          15.3478   32.7125    0.8566 N.3   314  UNL314     -0.3437
   1254 H          14.9061   33.0031    1.7277 H     314  UNL314      0.1146
   1255 H          16.0734   33.4021    0.6659 H     314  UNL314      0.1146
   1256 H          15.8353   31.8424    1.0655 H     314  UNL314      0.1146
   1257 N          15.5255   32.9669    3.1787 N.3   315  UNL315     -0.3437
   1258 H          14.7195   32.9170    3.8002 H     315  UNL315      0.1146
   1259 H          16.3443   33.0117    3.7837 H     315  UNL315      0.1146
   1260 H          15.5734   32.0645    2.7078 H     315  UNL315      0.1146
   1261 N          15.3478   31.7125    5.4340 N.3   316  UNL316     -0.3437
   1262 H          14.9061   32.0031    6.3051 H     316  UNL316      0.1146
   1263 H          16.0734   32.4021    5.2433 H     316  UNL316      0.1146
   1264 H          15.8353   30.8424    5.6429 H     316  UNL316      0.1146
   1265 N          17.5420   -0.0569    0.8566 N.3   317  UNL317     -0.3437
   1266 H          17.1003    0.2337    1.7277 H     317  UNL317      0.1146
   1267 H          18.2676    0.6327    0.6659 H     317  UNL317      0.1146
   1268 H          18.0295   -0.9270    1.0655 H     317  UNL317      0.1146
   1269 N          17.5055   -0.1498    3.2251 N.3   318  UNL318     -0.3437
   1270 H          17.6333   -0.5330    4.1606 H     318  UNL318      0.1146
   1271 H          17.4104    0.8577    3.3448 H     318  UNL318      0.1146
   1272 H          18.3901   -0.2926    2.7399 H     318  UNL318      0.1146
   1273 N          15.8723   -0.1674    5.4340 N.3   319  UNL319     -0.3437
   1274 H          15.9038   -0.6952    6.3051 H     319  UNL319      0.1146
   1275 H          14.8856    0.0012    5.2433 H     319  UNL319      0.1146
   1276 H          16.2776    0.7438    5.6429 H     319  UNL319      0.1146
   1277 N          17.5420    2.6090    1.4786 N.3   320  UNL320     -0.3437
   1278 H          17.1003    1.7372    1.1901 H     320  UNL320      0.1146
   1279 H          18.2676    2.3491    2.1452 H     320  UNL320      0.1146
   1280 H          18.0295    2.9623    0.6565 H     320  UNL320      0.1146
   1281 N          15.6721    2.3869    6.9439 N.3   321  UNL321     -0.3437
   1282 H          16.6344    2.6775    6.7764 H     321  UNL321      0.1146
   1283 H          15.0851    3.0765    6.4767 H     321  UNL321      0.1146
   1284 H          15.5477    1.5168    6.4283 H     321  UNL321      0.1146
   1285 N          17.5420    4.8307    0.8566 N.3   322  UNL322     -0.3437
   1286 H          17.1003    5.1213    1.7277 H     322  UNL322      0.1146
   1287 H          18.2676    5.5203    0.6659 H     322  UNL322      0.1146
   1288 H          18.0295    3.9606    1.0655 H     322  UNL322      0.1146
   1289 N          17.5420    4.8307    3.1453 N.3   323  UNL323     -0.3437
   1290 H          17.1003    5.1213    4.0164 H     323  UNL323      0.1146
   1291 H          18.2676    5.5203    2.9546 H     323  UNL323      0.1146
   1292 H          18.0295    3.9606    3.3542 H     323  UNL323      0.1146
   1293 N          17.5420    4.8307    5.4340 N.3   324  UNL324     -0.3437
   1294 H          17.1003    5.1213    6.3051 H     324  UNL324      0.1146
   1295 H          18.2676    5.5203    5.2433 H     324  UNL324      0.1146
   1296 H          18.0295    3.9606    5.6429 H     324  UNL324      0.1146
   1297 N          17.7486    7.4899    0.8511 N.3   325  UNL325     -0.3437
   1298 H          17.1271    7.8127    1.5913 H     325  UNL325      0.1146
   1299 H          18.6547    7.3376    1.2917 H     325  UNL325      0.1146
   1300 H          17.4089    6.5678    0.5814 H     325  UNL325      0.1146
   1301 N          17.8282    7.4730    3.1453 N.3   326  UNL326     -0.3437
   1302 H          18.3253    7.6529    4.0164 H     326  UNL326      0.1146
   1303 H          17.9464    6.4790    2.9546 H     326  UNL326      0.1146
   1304 H          16.8394    7.6031    3.3542 H     326  UNL326      0.1146
   1305 N          17.4582    7.2915    6.5527 N.3   327  UNL327     -0.3437
   1306 H          17.5959    6.6979    7.3695 H     327  UNL327      0.1146
   1307 H          17.7373    8.2295    6.8368 H     327  UNL327      0.1146
   1308 H          18.1479    6.9891    5.8663 H     327  UNL327      0.1146
   1309 N          17.4582    9.7353    0.9753 N.3   328  UNL328     -0.3437
   1310 H          17.5959    9.1417    1.7920 H     328  UNL328      0.1146
   1311 H          17.7373   10.6733    1.2594 H     328  UNL328      0.1146
   1312 H          18.1479    9.4329    0.2888 H     328  UNL328      0.1146
   1313 N          17.7486    9.9337    3.1398 N.3   329  UNL329     -0.3437
   1314 H          17.1271   10.2566    3.8800 H     329  UNL329      0.1146
   1315 H          18.6547    9.7814    3.5804 H     329  UNL329      0.1146
   1316 H          17.4089    9.0116    2.8701 H     329  UNL329      0.1146
   1317 N          17.4582    9.7353    6.5527 N.3   330  UNL330     -0.3437
   1318 H          17.5959    9.1417    7.3695 H     330  UNL330      0.1146
   1319 H          17.7373   10.6733    6.8368 H     330  UNL330      0.1146
   1320 H          18.1479    9.4329    5.8663 H     330  UNL330      0.1146
   1321 N          17.6721   12.1621   -0.9223 N.3   331  UNL331     -0.3437
   1322 H          18.6344   12.4527   -1.0897 H     331  UNL331      0.1146
   1323 H          17.0851   12.8517   -1.3895 H     331  UNL331      0.1146
   1324 H          17.5477   11.2920   -1.4379 H     331  UNL331      0.1146
   1325 N          17.5420   12.1621    0.8566 N.3   332  UNL332     -0.3437
   1326 H          17.1003   12.4527    1.7277 H     332  UNL332      0.1146
   1327 H          18.2676   12.8517    0.6659 H     332  UNL332      0.1146
   1328 H          18.0295   11.2920    1.0655 H     332  UNL332      0.1146
   1329 N          17.5420   12.0280    3.5227 N.3   333  UNL333     -0.3437
   1330 H          17.1003   12.5519    2.7686 H     333  UNL333      0.1146
   1331 H          18.2676   11.4625    3.0844 H     333  UNL333      0.1146
   1332 H          18.0295   12.7161    4.0948 H     333  UNL333      0.1146
   1333 N          17.4582   12.1791    6.5527 N.3   334  UNL334     -0.3437
   1334 H          17.5959   11.5855    7.3695 H     334  UNL334      0.1146
   1335 H          17.7373   13.1171    6.8368 H     334  UNL334      0.1146
   1336 H          18.1479   11.8767    5.8663 H     334  UNL334      0.1146
   1337 N          17.7486   14.8213    0.8511 N.3   335  UNL335     -0.3437
   1338 H          17.1271   15.1442    1.5913 H     335  UNL335      0.1146
   1339 H          18.6547   14.6690    1.2917 H     335  UNL335      0.1146
   1340 H          17.4089   13.8992    0.5814 H     335  UNL335      0.1146
   1341 N          17.5420   14.6059    3.1453 N.3   336  UNL336     -0.3437
   1342 H          17.1003   14.8965    4.0164 H     336  UNL336      0.1146
   1343 H          18.2676   15.2955    2.9546 H     336  UNL336      0.1146
   1344 H          18.0295   13.7358    3.3542 H     336  UNL336      0.1146
   1345 N          17.4582   14.6229    6.5527 N.3   337  UNL337     -0.3437
   1346 H          17.5959   14.0293    7.3695 H     337  UNL337      0.1146
   1347 H          17.7373   15.5609    6.8368 H     337  UNL337      0.1146
   1348 H          18.1479   14.3206    5.8663 H     337  UNL337      0.1146
   1349 N          17.5420   17.0497    0.8566 N.3   338  UNL338     -0.3437
   1350 H          17.1003   17.3403    1.7277 H     338  UNL338      0.1146
   1351 H          18.2676   17.7393    0.6659 H     338  UNL338      0.1146
   1352 H          18.0295   16.1796    1.0655 H     338  UNL338      0.1146
   1353 N          17.7792   16.8586    3.1737 N.3   339  UNL339     -0.3437
   1354 H          16.8347   16.8605    3.5562 H     339  UNL339      0.1146
   1355 H          17.9188   17.7817    2.7654 H     339  UNL339      0.1146
   1356 H          18.4066   16.8081    3.9750 H     339  UNL339      0.1146
   1357 N          17.5420   17.0497    5.4340 N.3   340  UNL340     -0.3437
   1358 H          17.1003   17.3403    6.3051 H     340  UNL340      0.1146
   1359 H          18.2676   17.7393    5.2433 H     340  UNL340      0.1146
   1360 H          18.0295   16.1796    5.6429 H     340  UNL340      0.1146
   1361 N          17.5420   19.3594   -0.7660 N.3   341  UNL341     -0.3437
   1362 H          17.1003   19.8834   -1.5201 H     341  UNL341      0.1146
   1363 H          18.2676   18.7939   -1.2044 H     341  UNL341      0.1146
   1364 H          18.0295   20.0475   -0.1939 H     341  UNL341      0.1146
   1365 N          17.5420   19.7156    1.4786 N.3   342  UNL342     -0.3437
   1366 H          17.1003   18.8438    1.1901 H     342  UNL342      0.1146
   1367 H          18.2676   19.4557    2.1452 H     342  UNL342      0.1146
   1368 H          18.0295   20.0690    0.6565 H     342  UNL342      0.1146
   1369 N          17.5420   19.7156    3.7673 N.3   343  UNL343     -0.3437
   1370 H          17.1003   18.8438    3.4788 H     343  UNL343      0.1146
   1371 H          18.2676   19.4557    4.4339 H     343  UNL343      0.1146
   1372 H          18.0295   20.0690    2.9452 H     343  UNL343      0.1146
   1373 N          17.6721   21.9373   -0.9223 N.3   344  UNL344     -0.3437
   1374 H          18.6344   22.2279   -1.0897 H     344  UNL344      0.1146
   1375 H          17.0851   22.6269   -1.3895 H     344  UNL344      0.1146
   1376 H          17.5477   21.0672   -1.4379 H     344  UNL344      0.1146
   1377 N          17.5420   21.9373    0.8566 N.3   345  UNL345     -0.3437
   1378 H          17.1003   22.2279    1.7277 H     345  UNL345      0.1146
   1379 H          18.2676   22.6269    0.6659 H     345  UNL345      0.1146
   1380 H          18.0295   21.0672    1.0655 H     345  UNL345      0.1146
   1381 N          17.5420   21.8032    3.5227 N.3   346  UNL346     -0.3437
   1382 H          17.1003   22.3272    2.7686 H     346  UNL346      0.1146
   1383 H          18.2676   21.2377    3.0844 H     346  UNL346      0.1146
   1384 H          18.0295   22.4913    4.0948 H     346  UNL346      0.1146
   1385 N          17.4582   21.9543    6.5527 N.3   347  UNL347     -0.3437
   1386 H          17.5959   21.3608    7.3695 H     347  UNL347      0.1146
   1387 H          17.7373   22.8923    6.8368 H     347  UNL347      0.1146
   1388 H          18.1479   21.6520    5.8663 H     347  UNL347      0.1146
   1389 N          17.8208   24.5567    1.3199 N.3   348  UNL348     -0.3437
   1390 H          18.4407   24.7042    0.5247 H     348  UNL348      0.1146
   1391 H          16.8899   24.8247    1.0038 H     348  UNL348      0.1146
   1392 H          17.7880   23.5489    1.4672 H     348  UNL348      0.1146
   1393 N          17.6721   24.3811    3.6552 N.3   349  UNL349     -0.3437
   1394 H          18.6344   24.6717    3.4877 H     349  UNL349      0.1146
   1395 H          17.0851   25.0707    3.1880 H     349  UNL349      0.1146
   1396 H          17.5477   23.5110    3.1396 H     349  UNL349      0.1146
   1397 N          17.4582   24.3981    6.5527 N.3   350  UNL350     -0.3437
   1398 H          17.5959   23.8046    7.3695 H     350  UNL350      0.1146
   1399 H          17.7373   25.3361    6.8368 H     350  UNL350      0.1146
   1400 H          18.1479   24.0958    5.8663 H     350  UNL350      0.1146
   1401 N          17.6721   26.8249   -0.9223 N.3   351  UNL351     -0.3437
   1402 H          18.6344   27.1155   -1.0897 H     351  UNL351      0.1146
   1403 H          17.0851   27.5145   -1.3895 H     351  UNL351      0.1146
   1404 H          17.5477   25.9548   -1.4379 H     351  UNL351      0.1146
   1405 N          17.5420   27.0470    1.1899 N.3   352  UNL352     -0.3437
   1406 H          17.1003   26.1752    0.9014 H     352  UNL352      0.1146
   1407 H          18.2676   26.7871    1.8565 H     352  UNL352      0.1146
   1408 H          18.0295   27.4004    0.3678 H     352  UNL352      0.1146
   1409 N          17.5420   27.0470    3.4786 N.3   353  UNL353     -0.3437
   1410 H          17.1003   26.1752    3.1901 H     353  UNL353      0.1146
   1411 H          18.2676   26.7871    4.1452 H     353  UNL353      0.1146
   1412 H          18.0295   27.4004    2.6565 H     353  UNL353      0.1146
   1413 N          17.4582   26.8419    6.5527 N.3   354  UNL354     -0.3437
   1414 H          17.5959   26.2484    7.3695 H     354  UNL354      0.1146
   1415 H          17.7373   27.7799    6.8368 H     354  UNL354      0.1146
   1416 H          18.1479   26.5396    5.8663 H     354  UNL354      0.1146
   1417 N          17.8282   29.4672    0.8566 N.3   355  UNL355     -0.3437
   1418 H          18.3254   29.6472    1.7277 H     355  UNL355      0.1146
   1419 H          17.9464   28.4732    0.6659 H     355  UNL355      0.1146
   1420 H          16.8394   29.5974    1.0655 H     355  UNL355      0.1146
   1421 N          17.5420   29.2687    3.1453 N.3   356  UNL356     -0.3437
   1422 H          17.1003   29.5593    4.0164 H     356  UNL356      0.1146
   1423 H          18.2676   29.9583    2.9546 H     356  UNL356      0.1146
   1424 H          18.0295   28.3986    3.3542 H     356  UNL356      0.1146
   1425 N          17.5420   29.2687    5.4340 N.3   357  UNL357     -0.3437
   1426 H          17.1003   29.5593    6.3051 H     357  UNL357      0.1146
   1427 H          18.2676   29.9583    5.2433 H     357  UNL357      0.1146
   1428 H          18.0295   28.3986    5.6429 H     357  UNL357      0.1146
   1429 N          17.6721   31.7125   -0.9223 N.3   358  UNL358     -0.3437
   1430 H          18.6344   32.0031   -1.0897 H     358  UNL358      0.1146
   1431 H          17.0851   32.4021   -1.3895 H     358  UNL358      0.1146
   1432 H          17.5477   30.8424   -1.4379 H     358  UNL358      0.1146
   1433 N          17.5420   32.7125    0.8566 N.3   359  UNL359     -0.3437
   1434 H          17.1003   33.0031    1.7277 H     359  UNL359      0.1146
   1435 H          18.2676   33.4021    0.6659 H     359  UNL359      0.1146
   1436 H          18.0295   31.8424    1.0655 H     359  UNL359      0.1146
   1437 N          17.5420   31.5784    3.5227 N.3   360  UNL360     -0.3437
   1438 H          17.1003   32.1024    2.7686 H     360  UNL360      0.1146
   1439 H          18.2676   31.0129    3.0844 H     360  UNL360      0.1146
   1440 H          18.0295   32.2665    4.0948 H     360  UNL360      0.1146
   1441 N          18.0284   32.7125    6.6349 N.3   361  UNL361     -0.3437
   1442 H          17.5948   33.0031    5.7597 H     361  UNL361      0.1146
   1443 H          17.7469   33.4021    7.3303 H     361  UNL361      0.1146
   1444 H          17.5693   31.8424    6.9004 H     361  UNL361      0.1146
   1445 N          19.7361    0.1652    1.1899 N.3   362  UNL362     -0.3437
   1446 H          19.2944   -0.7066    0.9014 H     362  UNL362      0.1146
   1447 H          20.4617   -0.0947    1.8565 H     362  UNL362      0.1146
   1448 H          20.2236    0.5185    0.3678 H     362  UNL362      0.1146
   1449 N          19.7361   -0.0569    3.1453 N.3   363  UNL363     -0.3437
   1450 H          19.2944    0.2337    4.0164 H     363  UNL363      0.1146
   1451 H          20.4617    0.6327    2.9546 H     363  UNL363      0.1146
   1452 H          20.2236   -0.9270    3.3542 H     363  UNL363      0.1146
   1453 N          17.8663   -0.0569    6.9439 N.3   364  UNL364     -0.3437
   1454 H          18.8285    0.2337    6.7764 H     364  UNL364      0.1146
   1455 H          17.2793    0.6327    6.4767 H     364  UNL364      0.1146
   1456 H          17.7419   -0.9270    6.4283 H     364  UNL364      0.1146
   1457 N          19.9427    2.6023    0.8511 N.3   365  UNL365     -0.3437
   1458 H          19.3213    2.9251    1.5913 H     365  UNL365      0.1146
   1459 H          20.8489    2.4499    1.2917 H     365  UNL365      0.1146
   1460 H          19.6030    1.6802    0.5814 H     365  UNL365      0.1146
   1461 N          19.9427    2.6023    3.1398 N.3   366  UNL366     -0.3437
   1462 H          19.3213    2.9251    3.8800 H     366  UNL366      0.1146
   1463 H          20.8489    2.4499    3.5804 H     366  UNL366      0.1146
   1464 H          19.6030    1.6802    2.8701 H     366  UNL366      0.1146
   1465 N          17.9138    2.6413    6.4674 N.3   367  UNL367     -0.3437
   1466 H          17.1078    2.5914    7.0889 H     367  UNL367      0.1146
   1467 H          18.7326    2.6861    7.0724 H     367  UNL367      0.1146
   1468 H          17.9617    1.7388    5.9965 H     367  UNL367      0.1146
   1469 N          19.8663    4.8307   -0.9223 N.3   368  UNL368     -0.3437
   1470 H          20.8285    5.1213   -1.0897 H     368  UNL368      0.1146
   1471 H          19.2793    5.5203   -1.3895 H     368  UNL368      0.1146
   1472 H          19.7419    3.9606   -1.4379 H     368  UNL368      0.1146
   1473 N          19.7361    4.8307    0.8566 N.3   369  UNL369     -0.3437
   1474 H          19.2944    5.1213    1.7277 H     369  UNL369      0.1146
   1475 H          20.4617    5.5203    0.6659 H     369  UNL369      0.1146
   1476 H          20.2236    3.9606    1.0655 H     369  UNL369      0.1146
   1477 N          19.7361    4.6966    3.5227 N.3   370  UNL370     -0.3437
   1478 H          19.2944    5.2205    2.7686 H     370  UNL370      0.1146
   1479 H          20.4617    4.1311    3.0844 H     370  UNL370      0.1146
   1480 H          20.2236    5.3846    4.0948 H     370  UNL370      0.1146
   1481 N          19.6523    4.8477    6.5527 N.3   371  UNL371     -0.3437
   1482 H          19.7900    4.2541    7.3695 H     371  UNL371      0.1146
   1483 H          19.9314    5.7856    6.8368 H     371  UNL371      0.1146
   1484 H          20.3421    4.5453    5.8663 H     371  UNL371      0.1146
   1485 N          19.7361    7.1404    1.2340 N.3   372  UNL372     -0.3437
   1486 H          19.2944    7.6643    0.4799 H     372  UNL372      0.1146
   1487 H          20.4617    6.5749    0.7956 H     372  UNL372      0.1146
   1488 H          20.2236    7.8284    1.8061 H     372  UNL372      0.1146
   1489 N          19.7361    7.2745    3.1453 N.3   373  UNL373     -0.3437
   1490 H          19.2944    7.5651    4.0164 H     373  UNL373      0.1146
   1491 H          20.4617    7.9641    2.9546 H     373  UNL373      0.1146
   1492 H          20.2236    6.4044    3.3542 H     373  UNL373      0.1146
   1493 N          19.6523    7.2915    6.5527 N.3   374  UNL374     -0.3437
   1494 H          19.7900    6.6979    7.3695 H     374  UNL374      0.1146
   1495 H          19.9314    8.2295    6.8368 H     374  UNL374      0.1146
   1496 H          20.3421    6.9891    5.8663 H     374  UNL374      0.1146
   1497 N          19.7361    9.7183    0.8566 N.3   375  UNL375     -0.3437
   1498 H          19.2944   10.0089    1.7277 H     375  UNL375      0.1146
   1499 H          20.4617   10.4079    0.6659 H     375  UNL375      0.1146
   1500 H          20.2236    8.8482    1.0655 H     375  UNL375      0.1146
   1501 N          19.7361    9.5842    3.5227 N.3   376  UNL376     -0.3437
   1502 H          19.2944   10.1081    2.7686 H     376  UNL376      0.1146
   1503 H          20.4617    9.0187    3.0844 H     376  UNL376      0.1146
   1504 H          20.2236   10.2722    4.0948 H     376  UNL376      0.1146
   1505 N          19.6523    9.7353    6.5527 N.3   377  UNL377     -0.3437
   1506 H          19.7900    9.1417    7.3695 H     377  UNL377      0.1146
   1507 H          19.9314   10.6733    6.8368 H     377  UNL377      0.1146
   1508 H          20.3421    9.4329    5.8663 H     377  UNL377      0.1146
   1509 N          19.7361   12.0280    1.2340 N.3   378  UNL378     -0.3437
   1510 H          19.2944   12.5519    0.4799 H     378  UNL378      0.1146
   1511 H          20.4617   11.4625    0.7956 H     378  UNL378      0.1146
   1512 H          20.2236   12.7161    1.8061 H     378  UNL378      0.1146
   1513 N          19.7361   12.3842    3.4786 N.3   379  UNL379     -0.3437
   1514 H          19.2944   11.5124    3.1901 H     379  UNL379      0.1146
   1515 H          20.4617   12.1243    4.1452 H     379  UNL379      0.1146
   1516 H          20.2236   12.7376    2.6565 H     379  UNL379      0.1146
   1517 N          19.6523   12.1791    6.5527 N.3   380  UNL380     -0.3437
   1518 H          19.7900   11.5855    7.3695 H     380  UNL380      0.1146
   1519 H          19.9314   13.1171    6.8368 H     380  UNL380      0.1146
   1520 H          20.3421   11.8767    5.8663 H     380  UNL380      0.1146
   1521 N          19.6523   14.6229    0.9753 N.3   381  UNL381     -0.3437
   1522 H          19.7900   14.0293    1.7920 H     381  UNL381      0.1146
   1523 H          19.9314   15.5609    1.2594 H     381  UNL381      0.1146
   1524 H          20.3421   14.3206    0.2888 H     381  UNL381      0.1146
   1525 N          19.7361   14.4718    3.5227 N.3   382  UNL382     -0.3437
   1526 H          19.2944   14.9957    2.7686 H     382  UNL382      0.1146
   1527 H          20.4617   13.9063    3.0844 H     382  UNL382      0.1146
   1528 H          20.2236   15.1599    4.0948 H     382  UNL382      0.1146
   1529 N          19.6523   14.6229    6.5527 N.3   383  UNL383     -0.3437
   1530 H          19.7900   14.0293    7.3695 H     383  UNL383      0.1146
   1531 H          19.9314   15.5609    6.8368 H     383  UNL383      0.1146
   1532 H          20.3421   14.3206    5.8663 H     383  UNL383      0.1146
   1533 N          19.7361   17.0497    0.8566 N.3   384  UNL384     -0.3437
   1534 H          19.2944   17.3403    1.7277 H     384  UNL384      0.1146
   1535 H          20.4617   17.7393    0.6659 H     384  UNL384      0.1146
   1536 H          20.2236   16.1796    1.0655 H     384  UNL384      0.1146
   1537 N          19.7361   16.9156    3.5227 N.3   385  UNL385     -0.3437
   1538 H          19.2944   17.4396    2.7686 H     385  UNL385      0.1146
   1539 H          20.4617   16.3501    3.0844 H     385  UNL385      0.1146
   1540 H          20.2236   17.6037    4.0948 H     385  UNL385      0.1146
   1541 N          19.6523   17.0667    6.5527 N.3   386  UNL386     -0.3437
   1542 H          19.7900   16.4732    7.3695 H     386  UNL386      0.1146
   1543 H          19.9314   18.0047    6.8368 H     386  UNL386      0.1146
   1544 H          20.3421   16.7644    5.8663 H     386  UNL386      0.1146
   1545 N          19.9427   19.7089    0.8511 N.3   387  UNL387     -0.3437
   1546 H          19.3213   20.0318    1.5913 H     387  UNL387      0.1146
   1547 H          20.8489   19.5566    1.2917 H     387  UNL387      0.1146
   1548 H          19.6030   18.7868    0.5814 H     387  UNL387      0.1146
   1549 N          19.9427   19.7089    3.1398 N.3   388  UNL388     -0.3437
   1550 H          19.3213   20.0318    3.8800 H     388  UNL388      0.1146
   1551 H          20.8489   19.5566    3.5804 H     388  UNL388      0.1146
   1552 H          19.6030   18.7868    2.8701 H     388  UNL388      0.1146
   1553 N          19.6523   19.5105    6.5527 N.3   389  UNL389     -0.3437
   1554 H          19.7900   18.9170    7.3695 H     389  UNL389      0.1146
   1555 H          19.9314   20.4485    6.8368 H     389  UNL389      0.1146
   1556 H          20.3421   19.2082    5.8663 H     389  UNL389      0.1146
   1557 N          19.7361   21.9373    0.8566 N.3   390  UNL390     -0.3437
   1558 H          19.2944   22.2279    1.7277 H     390  UNL390      0.1146
   1559 H          20.4617   22.6269    0.6659 H     390  UNL390      0.1146
   1560 H          20.2236   21.0672    1.0655 H     390  UNL390      0.1146
   1561 N          19.9733   21.7462    3.1737 N.3   391  UNL391     -0.3437
   1562 H          19.0288   21.7481    3.5562 H     391  UNL391      0.1146
   1563 H          20.1130   22.6693    2.7654 H     391  UNL391      0.1146
   1564 H          20.6008   21.6957    3.9750 H     391  UNL391      0.1146
   1565 N          19.6523   21.9543    6.5527 N.3   392  UNL392     -0.3437
   1566 H          19.7900   21.3608    7.3695 H     392  UNL392      0.1146
   1567 H          19.9314   22.8923    6.8368 H     392  UNL392      0.1146
   1568 H          20.3421   21.6520    5.8663 H     392  UNL392      0.1146
   1569 N          19.6807   24.5673    1.3914 N.3   393  UNL393     -0.3437
   1570 H          20.0968   24.3487    2.2955 H     393  UNL393      0.1146
   1571 H          20.4046   25.0459    0.8574 H     393  UNL393      0.1146
   1572 H          19.5338   23.6727    0.9261 H     393  UNL393      0.1146
   1573 N          20.0664   24.2706    3.4340 N.3   394  UNL394     -0.3437
   1574 H          20.0980   23.7428    4.3051 H     394  UNL394      0.1146
   1575 H          19.0797   24.4392    3.2433 H     394  UNL394      0.1146
   1576 H          20.4718   25.1819    3.6429 H     394  UNL394      0.1146
   1577 N          19.7361   27.0470    1.1899 N.3   395  UNL395     -0.3437
   1578 H          19.2944   26.1752    0.9014 H     395  UNL395      0.1146
   1579 H          20.4617   26.7871    1.8565 H     395  UNL395      0.1146
   1580 H          20.2236   27.4004    0.3678 H     395  UNL395      0.1146
   1581 N          19.7361   27.0470    3.4786 N.3   396  UNL396     -0.3437
   1582 H          19.2944   26.1752    3.1901 H     396  UNL396      0.1146
   1583 H          20.4617   26.7871    4.1452 H     396  UNL396      0.1146
   1584 H          20.2236   27.4004    2.6565 H     396  UNL396      0.1146
   1585 N          19.6523   26.8419    6.5527 N.3   397  UNL397     -0.3437
   1586 H          19.7900   26.2484    7.3695 H     397  UNL397      0.1146
   1587 H          19.9314   27.7799    6.8368 H     397  UNL397      0.1146
   1588 H          20.3421   26.5396    5.8663 H     397  UNL397      0.1146
   1589 N          19.8663   29.2687    1.3664 N.3   398  UNL398     -0.3437
   1590 H          20.8285   29.5593    1.1990 H     398  UNL398      0.1146
   1591 H          19.2793   29.9583    0.8992 H     398  UNL398      0.1146
   1592 H          19.7419   28.3986    0.8509 H     398  UNL398      0.1146
   1593 N          19.7361   29.2687    3.1453 N.3   399  UNL399     -0.3437
   1594 H          19.2944   29.5593    4.0164 H     399  UNL399      0.1146
   1595 H          20.4617   29.9583    2.9546 H     399  UNL399      0.1146
   1596 H          20.2236   28.3986    3.3542 H     399  UNL399      0.1146
   1597 N          19.6523   29.2857    6.5527 N.3   400  UNL400     -0.3437
   1598 H          19.7900   28.6922    7.3695 H     400  UNL400      0.1146
   1599 H          19.9314   30.2237    6.8368 H     400  UNL400      0.1146
   1600 H          20.3421   28.9834    5.8663 H     400  UNL400      0.1146
   1601 N          19.7361   32.7125    0.8566 N.3   401  UNL401     -0.3437
   1602 H          19.2944   33.0031    1.7277 H     401  UNL401      0.1146
   1603 H          20.4617   33.4021    0.6659 H     401  UNL401      0.1146
   1604 H          20.2236   31.8424    1.0655 H     401  UNL401      0.1146
   1605 N          19.9138   32.9669    3.1787 N.3   402  UNL402     -0.3437
   1606 H          19.1078   32.9170    3.8002 H     402  UNL402      0.1146
   1607 H          20.7326   33.0117    3.7837 H     402  UNL402      0.1146
   1608 H          19.9617   32.0645    2.7078 H     402  UNL402      0.1146
   1609 N          19.7361   31.7125    5.4340 N.3   403  UNL403     -0.3437
   1610 H          19.2944   32.0031    6.3051 H     403  UNL403      0.1146
   1611 H          20.4617   32.4021    5.2433 H     403  UNL403      0.1146
   1612 H          20.2236   30.8424    5.6429 H     403  UNL403      0.1146
   1613 N          21.8938   -0.1498    0.9364 N.3   404  UNL404     -0.3437
   1614 H          22.0216   -0.5330    1.8719 H     404  UNL404      0.1146
   1615 H          21.7987    0.8577    1.0561 H     404  UNL404      0.1146
   1616 H          22.7784   -0.2926    0.4511 H     404  UNL404      0.1146
   1617 N          21.9303   -0.1911    3.5227 N.3   405  UNL405     -0.3437
   1618 H          21.4886    0.3329    2.7686 H     405  UNL405      0.1146
   1619 H          22.6559   -0.7565    3.0844 H     405  UNL405      0.1146
   1620 H          22.4178    0.4970    4.0948 H     405  UNL405      0.1146
   1621 N          20.0604   -0.0569    6.9439 N.3   406  UNL406     -0.3437
   1622 H          21.0226    0.2337    6.7764 H     406  UNL406      0.1146
   1623 H          19.4734    0.6327    6.4767 H     406  UNL406      0.1146
   1624 H          19.9360   -0.9270    6.4283 H     406  UNL406      0.1146
   1625 N          21.8465    2.4039    0.9753 N.3   407  UNL407     -0.3437
   1626 H          21.9842    1.8103    1.7920 H     407  UNL407      0.1146
   1627 H          22.1256    3.3418    1.2594 H     407  UNL407      0.1146
   1628 H          22.5362    2.1015    0.2888 H     407  UNL407      0.1146
   1629 N          21.9303    2.2528    3.5227 N.3   408  UNL408     -0.3437
   1630 H          21.4886    2.7767    2.7686 H     408  UNL408      0.1146
   1631 H          22.6559    1.6873    3.0844 H     408  UNL408      0.1146
   1632 H          22.4178    2.9408    4.0948 H     408  UNL408      0.1146
   1633 N          21.9303    0.6090    5.7673 N.3   409  UNL409     -0.3437
   1634 H          21.4886   -0.2628    5.4788 H     409  UNL409      0.1146
   1635 H          22.6559    0.3491    6.4339 H     409  UNL409      0.1146
   1636 H          22.4178    0.9623    4.9452 H     409  UNL409      0.1146
   1637 N          21.9303    4.8307    0.8566 N.3   410  UNL410     -0.3437
   1638 H          21.4886    5.1213    1.7277 H     410  UNL410      0.1146
   1639 H          22.6559    5.5203    0.6659 H     410  UNL410      0.1146
   1640 H          22.4178    3.9606    1.0655 H     410  UNL410      0.1146
   1641 N          22.1675    4.6395    3.1737 N.3   411  UNL411     -0.3437
   1642 H          21.2230    4.6415    3.5562 H     411  UNL411      0.1146
   1643 H          22.3071    5.5627    2.7654 H     411  UNL411      0.1146
   1644 H          22.7949    4.5891    3.9750 H     411  UNL411      0.1146
   1645 N          21.9303    3.0528    5.7673 N.3   412  UNL412     -0.3437
   1646 H          21.4886    2.1810    5.4788 H     412  UNL412      0.1146
   1647 H          22.6559    2.7929    6.4339 H     412  UNL412      0.1146
   1648 H          22.4178    3.4061    4.9452 H     412  UNL412      0.1146
   1649 N          21.9303    7.1404    3.5227 N.3   413  UNL413     -0.3437
   1650 H          21.4886    7.6643    2.7686 H     413  UNL413      0.1146
   1651 H          22.6559    6.5749    3.0844 H     413  UNL413      0.1146
   1652 H          22.4178    7.8284    4.0948 H     413  UNL413      0.1146
   1653 N          21.9303    5.4966    5.7673 N.3   414  UNL414     -0.3437
   1654 H          21.4886    4.6248    5.4788 H     414  UNL414      0.1146
   1655 H          22.6559    5.2367    6.4339 H     414  UNL414      0.1146
   1656 H          22.4178    5.8500    4.9452 H     414  UNL414      0.1146
   1657 N          21.9303    9.7183    0.8566 N.3   415  UNL415     -0.3437
   1658 H          21.4886   10.0089    1.7277 H     415  UNL415      0.1146
   1659 H          22.6559   10.4079    0.6659 H     415  UNL415      0.1146
   1660 H          22.4178    8.8482    1.0655 H     415  UNL415      0.1146
   1661 N          22.1675    9.5271    3.1737 N.3   416  UNL416     -0.3437
   1662 H          21.2230    9.5291    3.5562 H     416  UNL416      0.1146
   1663 H          22.3071   10.4503    2.7654 H     416  UNL416      0.1146
   1664 H          22.7949    9.4767    3.9750 H     416  UNL416      0.1146
   1665 N          21.9303    7.9404    5.7673 N.3   417  UNL417     -0.3437
   1666 H          21.4886    7.0686    5.4788 H     417  UNL417      0.1146
   1667 H          22.6559    7.6805    6.4339 H     417  UNL417      0.1146
   1668 H          22.4178    8.2938    4.9452 H     417  UNL417      0.1146
   1669 N          22.1369   12.3775    0.8511 N.3   418  UNL418     -0.3437
   1670 H          21.5154   12.7004    1.5913 H     418  UNL418      0.1146
   1671 H          23.0430   12.2252    1.2917 H     418  UNL418      0.1146
   1672 H          21.7972   11.4554    0.5814 H     418  UNL418      0.1146
   1673 N          21.8938   12.0693    3.2251 N.3   419  UNL419     -0.3437
   1674 H          22.0216   11.6861    4.1606 H     419  UNL419      0.1146
   1675 H          21.7987   13.0767    3.3448 H     419  UNL419      0.1146
   1676 H          22.7784   11.9264    2.7399 H     419  UNL419      0.1146
   1677 N          21.9303   10.3842    5.7673 N.3   420  UNL420     -0.3437
   1678 H          21.4886    9.5124    5.4788 H     420  UNL420      0.1146
   1679 H          22.6559   10.1243    6.4339 H     420  UNL420      0.1146
   1680 H          22.4178   10.7376    4.9452 H     420  UNL420      0.1146
   1681 N          21.9303   14.8280    1.4786 N.3   421  UNL421     -0.3437
   1682 H          21.4886   13.9562    1.1901 H     421  UNL421      0.1146
   1683 H          22.6559   14.5681    2.1452 H     421  UNL421      0.1146
   1684 H          22.4178   15.1814    0.6565 H     421  UNL421      0.1146
   1685 N          21.9303   12.8280    5.7673 N.3   422  UNL422     -0.3437
   1686 H          21.4886   11.9562    5.4788 H     422  UNL422      0.1146
   1687 H          22.6559   12.5681    6.4339 H     422  UNL422      0.1146
   1688 H          22.4178   13.1814    4.9452 H     422  UNL422      0.1146
   1689 N          22.0604   17.0497   -0.9223 N.3   423  UNL423     -0.3437
   1690 H          23.0226   17.3403   -1.0897 H     423  UNL423      0.1146
   1691 H          21.4734   17.7393   -1.3895 H     423  UNL423      0.1146
   1692 H          21.9360   16.1796   -1.4379 H     423  UNL423      0.1146
   1693 N          21.9303   17.0497    0.8566 N.3   424  UNL424     -0.3437
   1694 H          21.4886   17.3403    1.7277 H     424  UNL424      0.1146
   1695 H          22.6559   17.7393    0.6659 H     424  UNL424      0.1146
   1696 H          22.4178   16.1796    1.0655 H     424  UNL424      0.1146
   1697 N          22.1675   16.8586    3.1737 N.3   425  UNL425     -0.3437
   1698 H          21.2230   16.8605    3.5562 H     425  UNL425      0.1146
   1699 H          22.3071   17.7817    2.7654 H     425  UNL425      0.1146
   1700 H          22.7949   16.8081    3.9750 H     425  UNL425      0.1146
   1701 N          21.9303   15.2718    5.7673 N.3   426  UNL426     -0.3437
   1702 H          21.4886   14.4000    5.4788 H     426  UNL426      0.1146
   1703 H          22.6559   15.0119    6.4339 H     426  UNL426      0.1146
   1704 H          22.4178   15.6252    4.9452 H     426  UNL426      0.1146
   1705 N          21.9303   19.3594    1.2340 N.3   427  UNL427     -0.3437
   1706 H          21.4886   19.8834    0.4799 H     427  UNL427      0.1146
   1707 H          22.6559   18.7939    0.7956 H     427  UNL427      0.1146
   1708 H          22.4178   20.0475    1.8061 H     427  UNL427      0.1146
   1709 N          22.0604   19.4935    3.6552 N.3   428  UNL428     -0.3437
   1710 H          23.0226   19.7841    3.4877 H     428  UNL428      0.1146
   1711 H          21.4734   20.1831    3.1880 H     428  UNL428      0.1146
   1712 H          21.9360   18.6234    3.1396 H     428  UNL428      0.1146
   1713 N          21.9303   17.7156    5.7673 N.3   429  UNL429     -0.3437
   1714 H          21.4886   16.8438    5.4788 H     429  UNL429      0.1146
   1715 H          22.6559   17.4557    6.4339 H     429  UNL429      0.1146
   1716 H          22.4178   18.0690    4.9452 H     429  UNL429      0.1146
   1717 N          21.9303   21.9373    0.8566 N.3   430  UNL430     -0.3437
   1718 H          21.4886   22.2279    1.7277 H     430  UNL430      0.1146
   1719 H          22.6559   22.6269    0.6659 H     430  UNL430      0.1146
   1720 H          22.4178   21.0672    1.0655 H     430  UNL430      0.1146
   1721 N          21.9303   21.8032    3.5227 N.3   431  UNL431     -0.3437
   1722 H          21.4886   22.3272    2.7686 H     431  UNL431      0.1146
   1723 H          22.6559   21.2377    3.0844 H     431  UNL431      0.1146
   1724 H          22.4178   22.4913    4.0948 H     431  UNL431      0.1146
   1725 N          21.9303   20.1594    5.7673 N.3   432  UNL432     -0.3437
   1726 H          21.4886   19.2876    5.4788 H     432  UNL432      0.1146
   1727 H          22.6559   19.8995    6.4339 H     432  UNL432      0.1146
   1728 H          22.4178   20.5128    4.9452 H     432  UNL432      0.1146
   1729 N          21.9303   24.6032    1.4786 N.3   433  UNL433     -0.3437
   1730 H          21.4886   23.7314    1.1901 H     433  UNL433      0.1146
   1731 H          22.6559   24.3433    2.1452 H     433  UNL433      0.1146
   1732 H          22.4178   24.9566    0.6565 H     433  UNL433      0.1146
   1733 N          22.1675   22.1900    5.4624 N.3   434  UNL434     -0.3437
   1734 H          21.2230   22.1920    5.8449 H     434  UNL434      0.1146
   1735 H          22.3071   23.1131    5.0542 H     434  UNL434      0.1146
   1736 H          22.7949   22.1395    6.2637 H     434  UNL434      0.1146
   1737 N          21.9303   27.0470    1.1899 N.3   435  UNL435     -0.3437
   1738 H          21.4886   26.1752    0.9014 H     435  UNL435      0.1146
   1739 H          22.6559   26.7871    1.8565 H     435  UNL435      0.1146
   1740 H          22.4178   27.4004    0.3678 H     435  UNL435      0.1146
   1741 N          21.9303   27.0470    3.4786 N.3   436  UNL436     -0.3437
   1742 H          21.4886   26.1752    3.1901 H     436  UNL436      0.1146
   1743 H          22.6559   26.7871    4.1452 H     436  UNL436      0.1146
   1744 H          22.4178   27.4004    2.6565 H     436  UNL436      0.1146
   1745 N          21.9303   25.0470    5.7673 N.3   437  UNL437     -0.3437
   1746 H          21.4886   24.1752    5.4788 H     437  UNL437      0.1146
   1747 H          22.6559   24.7871    6.4339 H     437  UNL437      0.1146
   1748 H          22.4178   25.4004    4.9452 H     437  UNL437      0.1146
   1749 N          21.9303   29.1346    3.5227 N.3   438  UNL438     -0.3437
   1750 H          21.4886   29.6586    2.7686 H     438  UNL438      0.1146
   1751 H          22.6559   28.5691    3.0844 H     438  UNL438      0.1146
   1752 H          22.4178   29.8227    4.0948 H     438  UNL438      0.1146
   1753 N          21.9303   27.4908    5.7673 N.3   439  UNL439     -0.3437
   1754 H          21.4886   26.6190    5.4788 H     439  UNL439      0.1146
   1755 H          22.6559   27.2309    6.4339 H     439  UNL439      0.1146
   1756 H          22.4178   27.8442    4.9452 H     439  UNL439      0.1146
   1757 N          21.9303   32.7125    0.8566 N.3   440  UNL440     -0.3437
   1758 H          21.4886   33.0031    1.7277 H     440  UNL440      0.1146
   1759 H          22.6559   33.4021    0.6659 H     440  UNL440      0.1146
   1760 H          22.4178   31.8424    1.0655 H     440  UNL440      0.1146
   1761 N          21.9303   31.7125    3.1453 N.3   441  UNL441     -0.3437
   1762 H          21.4886   32.0031    4.0164 H     441  UNL441      0.1146
   1763 H          22.6559   32.4021    2.9546 H     441  UNL441      0.1146
   1764 H          22.4178   30.8424    3.3542 H     441  UNL441      0.1146
   1765 N          22.4166   32.7125    6.6349 N.3   442  UNL442     -0.3437
   1766 H          21.9831   33.0031    5.7597 H     442  UNL442      0.1146
   1767 H          22.1352   33.4021    7.3303 H     442  UNL442      0.1146
   1768 H          21.9575   31.8424    6.9004 H     442  UNL442      0.1146
   1769 N          24.1244   -0.0569    0.8566 N.3   443  UNL443     -0.3437
   1770 H          23.6827    0.2337    1.7277 H     443  UNL443      0.1146
   1771 H          24.8500    0.6327    0.6659 H     443  UNL443      0.1146
   1772 H          24.6119   -0.9270    1.0655 H     443  UNL443      0.1146
   1773 N          24.3616   -0.2481    3.1737 N.3   444  UNL444     -0.3437
   1774 H          23.4171   -0.2461    3.5562 H     444  UNL444      0.1146
   1775 H          24.5012    0.6751    2.7654 H     444  UNL444      0.1146
   1776 H          24.9891   -0.2986    3.9750 H     444  UNL444      0.1146
   1777 N          24.0406   -0.0399    6.5527 N.3   445  UNL445     -0.3437
   1778 H          24.1783   -0.6335    7.3695 H     445  UNL445      0.1146
   1779 H          24.3197    0.8980    6.8368 H     445  UNL445      0.1146
   1780 H          24.7304   -0.3423    5.8663 H     445  UNL445      0.1146
   1781 N          24.1244    2.6090    1.4786 N.3   446  UNL446     -0.3437
   1782 H          23.6827    1.7372    1.1901 H     446  UNL446      0.1146
   1783 H          24.8500    2.3491    2.1452 H     446  UNL446      0.1146
   1784 H          24.6119    2.9623    0.6565 H     446  UNL446      0.1146
   1785 N          24.0690    2.5730    3.6801 N.3   447  UNL447     -0.3437
   1786 H          24.4851    2.3544    4.5842 H     447  UNL447      0.1146
   1787 H          24.7929    3.0517    3.1461 H     447  UNL447      0.1146
   1788 H          23.9220    1.6784    3.2149 H     447  UNL447      0.1146
   1789 N          24.2546    4.8307   -0.9223 N.3   448  UNL448     -0.3437
   1790 H          25.2168    5.1213   -1.0897 H     448  UNL448      0.1146
   1791 H          23.6675    5.5203   -1.3895 H     448  UNL448      0.1146
   1792 H          24.1302    3.9606   -1.4379 H     448  UNL448      0.1146
   1793 N          24.1244    4.8307    0.8566 N.3   449  UNL449     -0.3437
   1794 H          23.6827    5.1213    1.7277 H     449  UNL449      0.1146
   1795 H          24.8500    5.5203    0.6659 H     449  UNL449      0.1146
   1796 H          24.6119    3.9606    1.0655 H     449  UNL449      0.1146
   1797 N          24.1244    4.6966    3.5227 N.3   450  UNL450     -0.3437
   1798 H          23.6827    5.2205    2.7686 H     450  UNL450      0.1146
   1799 H          24.8500    4.1311    3.0844 H     450  UNL450      0.1146
   1800 H          24.6119    5.3846    4.0948 H     450  UNL450      0.1146
   1801 N          24.0406    4.8477    6.5527 N.3   451  UNL451     -0.3437
   1802 H          24.1783    4.2541    7.3695 H     451  UNL451      0.1146
   1803 H          24.3197    5.7856    6.8368 H     451  UNL451      0.1146
   1804 H          24.7304    4.5453    5.8663 H     451  UNL451      0.1146
   1805 N          24.1244    7.4966    1.4786 N.3   452  UNL452     -0.3437
   1806 H          23.6827    6.6248    1.1901 H     452  UNL452      0.1146
   1807 H          24.8500    7.2367    2.1452 H     452  UNL452      0.1146
   1808 H          24.6119    7.8500    0.6565 H     452  UNL452      0.1146
   1809 N          24.0406    7.2915    6.5527 N.3   453  UNL453     -0.3437
   1810 H          24.1783    6.6979    7.3695 H     453  UNL453      0.1146
   1811 H          24.3197    8.2295    6.8368 H     453  UNL453      0.1146
   1812 H          24.7304    6.9891    5.8663 H     453  UNL453      0.1146
   1813 N          24.1244    9.7183    0.8566 N.3   454  UNL454     -0.3437
   1814 H          23.6827   10.0089    1.7277 H     454  UNL454      0.1146
   1815 H          24.8500   10.4079    0.6659 H     454  UNL454      0.1146
   1816 H          24.6119    8.8482    1.0655 H     454  UNL454      0.1146
   1817 N          24.1244    9.5842    3.5227 N.3   455  UNL455     -0.3437
   1818 H          23.6827   10.1081    2.7686 H     455  UNL455      0.1146
   1819 H          24.8500    9.0187    3.0844 H     455  UNL455      0.1146
   1820 H          24.6119   10.2722    4.0948 H     455  UNL455      0.1146
   1821 N          24.0406    9.7353    6.5527 N.3   456  UNL456     -0.3437
   1822 H          24.1783    9.1417    7.3695 H     456  UNL456      0.1146
   1823 H          24.3197   10.6733    6.8368 H     456  UNL456      0.1146
   1824 H          24.7304    9.4329    5.8663 H     456  UNL456      0.1146
   1825 N          24.2546   12.1621   -0.9223 N.3   457  UNL457     -0.3437
   1826 H          25.2168   12.4527   -1.0897 H     457  UNL457      0.1146
   1827 H          23.6675   12.8517   -1.3895 H     457  UNL457      0.1146
   1828 H          24.1302   11.2920   -1.4379 H     457  UNL457      0.1146
   1829 N          24.1244   12.1621    0.8566 N.3   458  UNL458     -0.3437
   1830 H          23.6827   12.4527    1.7277 H     458  UNL458      0.1146
   1831 H          24.8500   12.8517    0.6659 H     458  UNL458      0.1146
   1832 H          24.6119   11.2920    1.0655 H     458  UNL458      0.1146
   1833 N          24.1244   12.0280    3.5227 N.3   459  UNL459     -0.3437
   1834 H          23.6827   12.5519    2.7686 H     459  UNL459      0.1146
   1835 H          24.8500   11.4625    3.0844 H     459  UNL459      0.1146
   1836 H          24.6119   12.7161    4.0948 H     459  UNL459      0.1146
   1837 N          24.0406   12.1791    6.5527 N.3   460  UNL460     -0.3437
   1838 H          24.1783   11.5855    7.3695 H     460  UNL460      0.1146
   1839 H          24.3197   13.1171    6.8368 H     460  UNL460      0.1146
   1840 H          24.7304   11.8767    5.8663 H     460  UNL460      0.1146
   1841 N          24.3310   14.8213    0.8511 N.3   461  UNL461     -0.3437
   1842 H          23.7095   15.1442    1.5913 H     461  UNL461      0.1146
   1843 H          25.2372   14.6690    1.2917 H     461  UNL461      0.1146
   1844 H          23.9913   13.8992    0.5814 H     461  UNL461      0.1146
   1845 N          24.3310   14.8213    3.1398 N.3   462  UNL462     -0.3437
   1846 H          23.7095   15.1442    3.8800 H     462  UNL462      0.1146
   1847 H          25.2372   14.6690    3.5804 H     462  UNL462      0.1146
   1848 H          23.9913   13.8992    2.8701 H     462  UNL462      0.1146
   1849 N          24.0406   14.6229    6.5527 N.3   463  UNL463     -0.3437
   1850 H          24.1783   14.0293    7.3695 H     463  UNL463      0.1146
   1851 H          24.3197   15.5609    6.8368 H     463  UNL463      0.1146
   1852 H          24.7304   14.3206    5.8663 H     463  UNL463      0.1146
   1853 N          24.1244   17.0497    0.8566 N.3   464  UNL464     -0.3437
   1854 H          23.6827   17.3403    1.7277 H     464  UNL464      0.1146
   1855 H          24.8500   17.7393    0.6659 H     464  UNL464      0.1146
   1856 H          24.6119   16.1796    1.0655 H     464  UNL464      0.1146
   1857 N          24.1244   16.9156    3.5227 N.3   465  UNL465     -0.3437
   1858 H          23.6827   17.4396    2.7686 H     465  UNL465      0.1146
   1859 H          24.8500   16.3501    3.0844 H     465  UNL465      0.1146
   1860 H          24.6119   17.6037    4.0948 H     465  UNL465      0.1146
   1861 N          24.0406   17.0667    6.5527 N.3   466  UNL466     -0.3437
   1862 H          24.1783   16.4732    7.3695 H     466  UNL466      0.1146
   1863 H          24.3197   18.0047    6.8368 H     466  UNL466      0.1146
   1864 H          24.7304   16.7644    5.8663 H     466  UNL466      0.1146
   1865 N          24.0690   19.6797    1.3914 N.3   467  UNL467     -0.3437
   1866 H          24.4851   19.4611    2.2955 H     467  UNL467      0.1146
   1867 H          24.7929   20.1583    0.8574 H     467  UNL467      0.1146
   1868 H          23.9220   18.7851    0.9261 H     467  UNL467      0.1146
   1869 N          24.0690   19.6797    3.6801 N.3   468  UNL468     -0.3437
   1870 H          24.4851   19.4611    4.5842 H     468  UNL468      0.1146
   1871 H          24.7929   20.1583    3.1461 H     468  UNL468      0.1146
   1872 H          23.9220   18.7851    3.2149 H     468  UNL468      0.1146
   1873 N          24.1244   22.1594    1.1899 N.3   469  UNL469     -0.3437
   1874 H          23.6827   21.2876    0.9014 H     469  UNL469      0.1146
   1875 H          24.8500   21.8995    1.8565 H     469  UNL469      0.1146
   1876 H          24.6119   22.5128    0.3678 H     469  UNL469      0.1146
   1877 N          24.1244   22.1594    3.4786 N.3   470  UNL470     -0.3437
   1878 H          23.6827   21.2876    3.1901 H     470  UNL470      0.1146
   1879 H          24.8500   21.8995    4.1452 H     470  UNL470      0.1146
   1880 H          24.6119   22.5128    2.6565 H     470  UNL470      0.1146
   1881 N          24.0406   21.9543    6.5527 N.3   471  UNL471     -0.3437
   1882 H          24.1783   21.3608    7.3695 H     471  UNL471      0.1146
   1883 H          24.3197   22.8923    6.8368 H     471  UNL471      0.1146
   1884 H          24.7304   21.6520    5.8663 H     471  UNL471      0.1146
   1885 N          24.1244   24.6032    1.4786 N.3   472  UNL472     -0.3437
   1886 H          23.6827   23.7314    1.1901 H     472  UNL472      0.1146
   1887 H          24.8500   24.3433    2.1452 H     472  UNL472      0.1146
   1888 H          24.6119   24.9566    0.6565 H     472  UNL472      0.1146
   1889 N          24.1244   24.6032    3.7673 N.3   473  UNL473     -0.3437
   1890 H          23.6827   23.7314    3.4788 H     473  UNL473      0.1146
   1891 H          24.8500   24.3433    4.4339 H     473  UNL473      0.1146
   1892 H          24.6119   24.9566    2.9452 H     473  UNL473      0.1146
   1893 N          24.2546   26.8249   -0.9223 N.3   474  UNL474     -0.3437
   1894 H          25.2168   27.1155   -1.0897 H     474  UNL474      0.1146
   1895 H          23.6675   27.5145   -1.3895 H     474  UNL474      0.1146
   1896 H          24.1302   25.9548   -1.4379 H     474  UNL474      0.1146
   1897 N          24.1244   27.0470    1.1899 N.3   475  UNL475     -0.3437
   1898 H          23.6827   26.1752    0.9014 H     475  UNL475      0.1146
   1899 H          24.8500   26.7871    1.8565 H     475  UNL475      0.1146
   1900 H          24.6119   27.4004    0.3678 H     475  UNL475      0.1146
   1901 N          24.1244   27.0470    3.4786 N.3   476  UNL476     -0.3437
   1902 H          23.6827   26.1752    3.1901 H     476  UNL476      0.1146
   1903 H          24.8500   26.7871    4.1452 H     476  UNL476      0.1146
   1904 H          24.6119   27.4004    2.6565 H     476  UNL476      0.1146
   1905 N          24.0406   26.8419    6.5527 N.3   477  UNL477     -0.3437
   1906 H          24.1783   26.2484    7.3695 H     477  UNL477      0.1146
   1907 H          24.3197   27.7799    6.8368 H     477  UNL477      0.1146
   1908 H          24.7304   26.5396    5.8663 H     477  UNL477      0.1146
   1909 N          24.3310   29.4841    0.8511 N.3   478  UNL478     -0.3437
   1910 H          23.7095   29.8070    1.5913 H     478  UNL478      0.1146
   1911 H          25.2372   29.3318    1.2917 H     478  UNL478      0.1146
   1912 H          23.9913   28.5621    0.5814 H     478  UNL478      0.1146
   1913 N          24.3310   29.4841    3.1398 N.3   479  UNL479     -0.3437
   1914 H          23.7095   29.8070    3.8800 H     479  UNL479      0.1146
   1915 H          25.2372   29.3318    3.5804 H     479  UNL479      0.1146
   1916 H          23.9913   28.5621    2.8701 H     479  UNL479      0.1146
   1917 N          24.0406   29.2857    6.5527 N.3   480  UNL480     -0.3437
   1918 H          24.1783   28.6922    7.3695 H     480  UNL480      0.1146
   1919 H          24.3197   30.2237    6.8368 H     480  UNL480      0.1146
   1920 H          24.7304   28.9834    5.8663 H     480  UNL480      0.1146
   1921 N          24.1244   32.7125    0.8566 N.3   481  UNL481     -0.3437
   1922 H          23.6827   33.0031    1.7277 H     481  UNL481      0.1146
   1923 H          24.8500   33.4021    0.6659 H     481  UNL481      0.1146
   1924 H          24.6119   31.8424    1.0655 H     481  UNL481      0.1146
   1925 N          24.1244   31.7125    3.1453 N.3   482  UNL482     -0.3437
   1926 H          23.6827   32.0031    4.0164 H     482  UNL482      0.1146
   1927 H          24.8500   32.4021    2.9546 H     482  UNL482      0.1146
   1928 H          24.6119   30.8424    3.3542 H     482  UNL482      0.1146
   1929 N          24.1244   31.7125    5.4340 N.3   483  UNL483     -0.3437
   1930 H          23.6827   32.0031    6.3051 H     483  UNL483      0.1146
   1931 H          24.8500   32.4021    5.2433 H     483  UNL483      0.1146
   1932 H          24.6119   30.8424    5.6429 H     483  UNL483      0.1146
   1933 N          26.3185    0.1652    1.1899 N.3   484  UNL484     -0.3437
   1934 H          25.8768   -0.7066    0.9014 H     484  UNL484      0.1146
   1935 H          27.0441   -0.0947    1.8565 H     484  UNL484      0.1146
   1936 H          26.8060    0.5185    0.3678 H     484  UNL484      0.1146
   1937 N          26.3185    0.1652    3.4786 N.3   485  UNL485     -0.3437
   1938 H          25.8768   -0.7066    3.1901 H     485  UNL485      0.1146
   1939 H          27.0441   -0.0947    4.1452 H     485  UNL485      0.1146
   1940 H          26.8060    0.5185    2.6565 H     485  UNL485      0.1146
   1941 N          26.2348   -0.0399    6.5527 N.3   486  UNL486     -0.3437
   1942 H          26.3725   -0.6335    7.3695 H     486  UNL486      0.1146
   1943 H          26.5139    0.8980    6.8368 H     486  UNL486      0.1146
   1944 H          26.9245   -0.3423    5.8663 H     486  UNL486      0.1146
   1945 N          26.5251    2.6023    0.8511 N.3   487  UNL487     -0.3437
   1946 H          25.9037    2.9251    1.5913 H     487  UNL487      0.1146
   1947 H          27.4313    2.4499    1.2917 H     487  UNL487      0.1146
   1948 H          26.1855    1.6802    0.5814 H     487  UNL487      0.1146
   1949 N          26.5251    2.6023    3.1398 N.3   488  UNL488     -0.3437
   1950 H          25.9037    2.9251    3.8800 H     488  UNL488      0.1146
   1951 H          27.4313    2.4499    3.5804 H     488  UNL488      0.1146
   1952 H          26.1855    1.6802    2.8701 H     488  UNL488      0.1146
   1953 N          26.2348    2.4039    6.5527 N.3   489  UNL489     -0.3437
   1954 H          26.3725    1.8103    7.3695 H     489  UNL489      0.1146
   1955 H          26.5139    3.3418    6.8368 H     489  UNL489      0.1146
   1956 H          26.9245    2.1015    5.8663 H     489  UNL489      0.1146
   1957 N          26.3185    4.8307    0.8566 N.3   490  UNL490     -0.3437
   1958 H          25.8768    5.1213    1.7277 H     490  UNL490      0.1146
   1959 H          27.0441    5.5203    0.6659 H     490  UNL490      0.1146
   1960 H          26.8060    3.9606    1.0655 H     490  UNL490      0.1146
   1961 N          26.5557    4.6395    3.1737 N.3   491  UNL491     -0.3437
   1962 H          25.6113    4.6415    3.5562 H     491  UNL491      0.1146
   1963 H          26.6954    5.5627    2.7654 H     491  UNL491      0.1146
   1964 H          27.1832    4.5891    3.9750 H     491  UNL491      0.1146
   1965 N          26.2348    4.8477    6.5527 N.3   492  UNL492     -0.3437
   1966 H          26.3725    4.2541    7.3695 H     492  UNL492      0.1146
   1967 H          26.5139    5.7856    6.8368 H     492  UNL492      0.1146
   1968 H          26.9245    4.5453    5.8663 H     492  UNL492      0.1146
   1969 N          26.3185    7.4966    1.4786 N.3   493  UNL493     -0.3437
   1970 H          25.8768    6.6248    1.1901 H     493  UNL493      0.1146
   1971 H          27.0441    7.2367    2.1452 H     493  UNL493      0.1146
   1972 H          26.8060    7.8500    0.6565 H     493  UNL493      0.1146
   1973 N          26.3185    7.4966    3.7673 N.3   494  UNL494     -0.3437
   1974 H          25.8768    6.6248    3.4788 H     494  UNL494      0.1146
   1975 H          27.0441    7.2367    4.4339 H     494  UNL494      0.1146
   1976 H          26.8060    7.8500    2.9452 H     494  UNL494      0.1146
   1977 N          26.3185    9.7183    0.8566 N.3   495  UNL495     -0.3437
   1978 H          25.8768   10.0089    1.7277 H     495  UNL495      0.1146
   1979 H          27.0441   10.4079    0.6659 H     495  UNL495      0.1146
   1980 H          26.8060    8.8482    1.0655 H     495  UNL495      0.1146
   1981 N          26.5557    9.5271    3.1737 N.3   496  UNL496     -0.3437
   1982 H          25.6113    9.5291    3.5562 H     496  UNL496      0.1146
   1983 H          26.6954   10.4503    2.7654 H     496  UNL496      0.1146
   1984 H          27.1832    9.4767    3.9750 H     496  UNL496      0.1146
   1985 N          26.2348    9.7353    6.5527 N.3   497  UNL497     -0.3437
   1986 H          26.3725    9.1417    7.3695 H     497  UNL497      0.1146
   1987 H          26.5139   10.6733    6.8368 H     497  UNL497      0.1146
   1988 H          26.9245    9.4329    5.8663 H     497  UNL497      0.1146
   1989 N          26.3185   12.3842    1.4786 N.3   498  UNL498     -0.3437
   1990 H          25.8768   11.5124    1.1901 H     498  UNL498      0.1146
   1991 H          27.0441   12.1243    2.1452 H     498  UNL498      0.1146
   1992 H          26.8060   12.7376    0.6565 H     498  UNL498      0.1146
   1993 N          26.3185   12.1621    3.4340 N.3   499  UNL499     -0.3437
   1994 H          25.8768   12.4527    4.3051 H     499  UNL499      0.1146
   1995 H          27.0441   12.8517    3.2433 H     499  UNL499      0.1146
   1996 H          26.8060   11.2920    3.6429 H     499  UNL499      0.1146
   1997 N          26.2348   14.6229    0.9753 N.3   500  UNL500     -0.3437
   1998 H          26.3725   14.0293    1.7920 H     500  UNL500      0.1146
   1999 H          26.5139   15.5609    1.2594 H     500  UNL500      0.1146
   2000 H          26.9245   14.3206    0.2888 H     500  UNL500      0.1146
   2001 N          26.3185   14.4718    3.5227 N.3   501  UNL501     -0.3437
   2002 H          25.8768   14.9957    2.7686 H     501  UNL501      0.1146
   2003 H          27.0441   13.9063    3.0844 H     501  UNL501      0.1146
   2004 H          26.8060   15.1599    4.0948 H     501  UNL501      0.1146
   2005 N          26.2348   14.6229    6.5527 N.3   502  UNL502     -0.3437
   2006 H          26.3725   14.0293    7.3695 H     502  UNL502      0.1146
   2007 H          26.5139   15.5609    6.8368 H     502  UNL502      0.1146
   2008 H          26.9245   14.3206    5.8663 H     502  UNL502      0.1146
   2009 N          26.4487   17.0497   -0.9223 N.3   503  UNL503     -0.3437
   2010 H          27.4109   17.3403   -1.0897 H     503  UNL503      0.1146
   2011 H          25.8617   17.7393   -1.3895 H     503  UNL503      0.1146
   2012 H          26.3243   16.1796   -1.4379 H     503  UNL503      0.1146
   2013 N          26.3185   17.0497    0.8566 N.3   504  UNL504     -0.3437
   2014 H          25.8768   17.3403    1.7277 H     504  UNL504      0.1146
   2015 H          27.0441   17.7393    0.6659 H     504  UNL504      0.1146
   2016 H          26.8060   16.1796    1.0655 H     504  UNL504      0.1146
   2017 N          26.5557   16.8586    3.1737 N.3   505  UNL505     -0.3437
   2018 H          25.6113   16.8605    3.5562 H     505  UNL505      0.1146
   2019 H          26.6954   17.7817    2.7654 H     505  UNL505      0.1146
   2020 H          27.1832   16.8081    3.9750 H     505  UNL505      0.1146
   2021 N          26.2348   17.0667    6.5527 N.3   506  UNL506     -0.3437
   2022 H          26.3725   16.4732    7.3695 H     506  UNL506      0.1146
   2023 H          26.5139   18.0047    6.8368 H     506  UNL506      0.1146
   2024 H          26.9245   16.7644    5.8663 H     506  UNL506      0.1146
   2025 N          26.2631   19.6797    1.3914 N.3   507  UNL507     -0.3437
   2026 H          26.6792   19.4611    2.2955 H     507  UNL507      0.1146
   2027 H          26.9871   20.1583    0.8574 H     507  UNL507      0.1146
   2028 H          26.1162   18.7851    0.9261 H     507  UNL507      0.1146
   2029 N          26.3185   19.4935    3.4340 N.3   508  UNL508     -0.3437
   2030 H          25.8768   19.7841    4.3051 H     508  UNL508      0.1146
   2031 H          27.0441   20.1831    3.2433 H     508  UNL508      0.1146
   2032 H          26.8060   18.6234    3.6429 H     508  UNL508      0.1146
   2033 N          26.3185   22.1594    1.1899 N.3   509  UNL509     -0.3437
   2034 H          25.8768   21.2876    0.9014 H     509  UNL509      0.1146
   2035 H          27.0441   21.8995    1.8565 H     509  UNL509      0.1146
   2036 H          26.8060   22.5128    0.3678 H     509  UNL509      0.1146
   2037 N          26.3185   22.1594    3.4786 N.3   510  UNL510     -0.3437
   2038 H          25.8768   21.2876    3.1901 H     510  UNL510      0.1146
   2039 H          27.0441   21.8995    4.1452 H     510  UNL510      0.1146
   2040 H          26.8060   22.5128    2.6565 H     510  UNL510      0.1146
   2041 N          26.2348   21.9543    6.5527 N.3   511  UNL511     -0.3437
   2042 H          26.3725   21.3608    7.3695 H     511  UNL511      0.1146
   2043 H          26.5139   22.8923    6.8368 H     511  UNL511      0.1146
   2044 H          26.9245   21.6520    5.8663 H     511  UNL511      0.1146
   2045 N          26.3185   24.6032    1.4786 N.3   512  UNL512     -0.3437
   2046 H          25.8768   23.7314    1.1901 H     512  UNL512      0.1146
   2047 H          27.0441   24.3433    2.1452 H     512  UNL512      0.1146
   2048 H          26.8060   24.9566    0.6565 H     512  UNL512      0.1146
   2049 N          26.3185   24.6032    3.7673 N.3   513  UNL513     -0.3437
   2050 H          25.8768   23.7314    3.4788 H     513  UNL513      0.1146
   2051 H          27.0441   24.3433    4.4339 H     513  UNL513      0.1146
   2052 H          26.8060   24.9566    2.9452 H     513  UNL513      0.1146
   2053 N          26.3185   27.0470    1.1899 N.3   514  UNL514     -0.3437
   2054 H          25.8768   26.1752    0.9014 H     514  UNL514      0.1146
   2055 H          27.0441   26.7871    1.8565 H     514  UNL514      0.1146
   2056 H          26.8060   27.4004    0.3678 H     514  UNL514      0.1146
   2057 N          26.3185   27.0470    3.4786 N.3   515  UNL515     -0.3437
   2058 H          25.8768   26.1752    3.1901 H     515  UNL515      0.1146
   2059 H          27.0441   26.7871    4.1452 H     515  UNL515      0.1146
   2060 H          26.8060   27.4004    2.6565 H     515  UNL515      0.1146
   2061 N          26.2348   26.8419    6.5527 N.3   516  UNL516     -0.3437
   2062 H          26.3725   26.2484    7.3695 H     516  UNL516      0.1146
   2063 H          26.5139   27.7799    6.8368 H     516  UNL516      0.1146
   2064 H          26.9245   26.5396    5.8663 H     516  UNL516      0.1146
   2065 N          26.2348   29.2857    0.9753 N.3   517  UNL517     -0.3437
   2066 H          26.3725   28.6922    1.7920 H     517  UNL517      0.1146
   2067 H          26.5139   30.2237    1.2594 H     517  UNL517      0.1146
   2068 H          26.9245   28.9834    0.2888 H     517  UNL517      0.1146
   2069 N          26.4487   29.2687    3.6552 N.3   518  UNL518     -0.3437
   2070 H          27.4109   29.5593    3.4877 H     518  UNL518      0.1146
   2071 H          25.8617   29.9583    3.1880 H     518  UNL518      0.1146
   2072 H          26.3243   28.3986    3.1396 H     518  UNL518      0.1146
   2073 N          26.2348   29.2857    6.5527 N.3   519  UNL519     -0.3437
   2074 H          26.3725   28.6922    7.3695 H     519  UNL519      0.1146
   2075 H          26.5139   30.2237    6.8368 H     519  UNL519      0.1146
   2076 H          26.9245   28.9834    5.8663 H     519  UNL519      0.1146
   2077 N          26.3185   32.7125    0.8566 N.3   520  UNL520     -0.3437
   2078 H          25.8768   33.0031    1.7277 H     520  UNL520      0.1146
   2079 H          27.0441   33.4021    0.6659 H     520  UNL520      0.1146
   2080 H          26.8060   31.8424    1.0655 H     520  UNL520      0.1146
   2081 N          26.4962   32.9669    3.1787 N.3   521  UNL521     -0.3437
   2082 H          25.6902   32.9170    3.8002 H     521  UNL521      0.1146
   2083 H          27.3150   33.0117    3.7837 H     521  UNL521      0.1146
   2084 H          26.5441   32.0645    2.7078 H     521  UNL521      0.1146
   2085 N          26.3185   31.7125    5.4340 N.3   522  UNL522     -0.3437
   2086 H          25.8768   32.0031    6.3051 H     522  UNL522      0.1146
   2087 H          27.0441   32.4021    5.2433 H     522  UNL522      0.1146
   2088 H          26.8060   30.8424    5.6429 H     522  UNL522      0.1146
   2089 N          28.4762   -0.1498    0.9364 N.3   523  UNL523     -0.3437
   2090 H          28.6040   -0.5330    1.8719 H     523  UNL523      0.1146
   2091 H          28.3811    0.8577    1.0561 H     523  UNL523      0.1146
   2092 H          29.3608   -0.2926    0.4511 H     523  UNL523      0.1146
   2093 N          28.5127    0.1652    3.4786 N.3   524  UNL524     -0.3437
   2094 H          28.0710   -0.7066    3.1901 H     524  UNL524      0.1146
   2095 H          29.2383   -0.0947    4.1452 H     524  UNL524      0.1146
   2096 H          29.0002    0.5185    2.6565 H     524  UNL524      0.1146
   2097 N          28.4289   -0.0399    6.5527 N.3   525  UNL525     -0.3437
   2098 H          28.5666   -0.6335    7.3695 H     525  UNL525      0.1146
   2099 H          28.7080    0.8980    6.8368 H     525  UNL525      0.1146
   2100 H          29.1186   -0.3423    5.8663 H     525  UNL525      0.1146
   2101 N          28.4289    2.4039    0.9753 N.3   526  UNL526     -0.3437
   2102 H          28.5666    1.8103    1.7920 H     526  UNL526      0.1146
   2103 H          28.7080    3.3418    1.2594 H     526  UNL526      0.1146
   2104 H          29.1186    2.1015    0.2888 H     526  UNL526      0.1146
   2105 N          28.5127    2.2528    3.5227 N.3   527  UNL527     -0.3437
   2106 H          28.0710    2.7767    2.7686 H     527  UNL527      0.1146
   2107 H          29.2383    1.6873    3.0844 H     527  UNL527      0.1146
   2108 H          29.0002    2.9408    4.0948 H     527  UNL527      0.1146
   2109 N          28.4289    2.4039    6.5527 N.3   528  UNL528     -0.3437
   2110 H          28.5666    1.8103    7.3695 H     528  UNL528      0.1146
   2111 H          28.7080    3.3418    6.8368 H     528  UNL528      0.1146
   2112 H          29.1186    2.1015    5.8663 H     528  UNL528      0.1146
   2113 N          28.6428    4.8307   -0.9223 N.3   529  UNL529     -0.3437
   2114 H          29.6051    5.1213   -1.0897 H     529  UNL529      0.1146
   2115 H          28.0558    5.5203   -1.3895 H     529  UNL529      0.1146
   2116 H          28.5184    3.9606   -1.4379 H     529  UNL529      0.1146
   2117 N          28.5127    4.8307    0.8566 N.3   530  UNL530     -0.3437
   2118 H          28.0710    5.1213    1.7277 H     530  UNL530      0.1146
   2119 H          29.2383    5.5203    0.6659 H     530  UNL530      0.1146
   2120 H          29.0002    3.9606    1.0655 H     530  UNL530      0.1146
   2121 N          28.5127    4.6966    3.5227 N.3   531  UNL531     -0.3437
   2122 H          28.0710    5.2205    2.7686 H     531  UNL531      0.1146
   2123 H          29.2383    4.1311    3.0844 H     531  UNL531      0.1146
   2124 H          29.0002    5.3846    4.0948 H     531  UNL531      0.1146
   2125 N          28.4289    4.8477    6.5527 N.3   532  UNL532     -0.3437
   2126 H          28.5666    4.2541    7.3695 H     532  UNL532      0.1146
   2127 H          28.7080    5.7856    6.8368 H     532  UNL532      0.1146
   2128 H          29.1186    4.5453    5.8663 H     532  UNL532      0.1146
   2129 N          28.5127    7.4966    1.4786 N.3   533  UNL533     -0.3437
   2130 H          28.0710    6.6248    1.1901 H     533  UNL533      0.1146
   2131 H          29.2383    7.2367    2.1452 H     533  UNL533      0.1146
   2132 H          29.0002    7.8500    0.6565 H     533  UNL533      0.1146
   2133 N          28.5127    7.4966    3.7673 N.3   534  UNL534     -0.3437
   2134 H          28.0710    6.6248    3.4788 H     534  UNL534      0.1146
   2135 H          29.2383    7.2367    4.4339 H     534  UNL534      0.1146
   2136 H          29.0002    7.8500    2.9452 H     534  UNL534      0.1146
   2137 N          28.5127    9.7183    0.8566 N.3   535  UNL535     -0.3437
   2138 H          28.0710   10.0089    1.7277 H     535  UNL535      0.1146
   2139 H          29.2383   10.4079    0.6659 H     535  UNL535      0.1146
   2140 H          29.0002    8.8482    1.0655 H     535  UNL535      0.1146
   2141 N          28.5127    9.5842    3.5227 N.3   536  UNL536     -0.3437
   2142 H          28.0710   10.1081    2.7686 H     536  UNL536      0.1146
   2143 H          29.2383    9.0187    3.0844 H     536  UNL536      0.1146
   2144 H          29.0002   10.2722    4.0948 H     536  UNL536      0.1146
   2145 N          28.4289    9.7353    6.5527 N.3   537  UNL537     -0.3437
   2146 H          28.5666    9.1417    7.3695 H     537  UNL537      0.1146
   2147 H          28.7080   10.6733    6.8368 H     537  UNL537      0.1146
   2148 H          29.1186    9.4329    5.8663 H     537  UNL537      0.1146
   2149 N          28.7193   12.3775    0.8511 N.3   538  UNL538     -0.3437
   2150 H          28.0978   12.7004    1.5913 H     538  UNL538      0.1146
   2151 H          29.6254   12.2252    1.2917 H     538  UNL538      0.1146
   2152 H          28.3796   11.4554    0.5814 H     538  UNL538      0.1146
   2153 N          28.7193   12.3775    3.1398 N.3   539  UNL539     -0.3437
   2154 H          28.0978   12.7004    3.8800 H     539  UNL539      0.1146
   2155 H          29.6254   12.2252    3.5804 H     539  UNL539      0.1146
   2156 H          28.3796   11.4554    2.8701 H     539  UNL539      0.1146
   2157 N          26.6904   12.4165    6.4674 N.3   540  UNL540     -0.3437
   2158 H          25.8843   12.3666    7.0889 H     540  UNL540      0.1146
   2159 H          27.5091   12.4613    7.0724 H     540  UNL540      0.1146
   2160 H          26.7383   11.5141    5.9965 H     540  UNL540      0.1146
   2161 N          28.5127   14.8280    1.4786 N.3   541  UNL541     -0.3437
   2162 H          28.0710   13.9562    1.1901 H     541  UNL541      0.1146
   2163 H          29.2383   14.5681    2.1452 H     541  UNL541      0.1146
   2164 H          29.0002   15.1814    0.6565 H     541  UNL541      0.1146
   2165 N          28.4573   14.7921    3.6801 N.3   542  UNL542     -0.3437
   2166 H          28.8734   14.5735    4.5842 H     542  UNL542      0.1146
   2167 H          29.1812   15.2707    3.1461 H     542  UNL542      0.1146
   2168 H          28.3103   13.8975    3.2149 H     542  UNL542      0.1146
   2169 N          28.5127   17.0497    0.8566 N.3   543  UNL543     -0.3437
   2170 H          28.0710   17.3403    1.7277 H     543  UNL543      0.1146
   2171 H          29.2383   17.7393    0.6659 H     543  UNL543      0.1146
   2172 H          29.0002   16.1796    1.0655 H     543  UNL543      0.1146
   2173 N          28.5127   16.9156    3.5227 N.3   544  UNL544     -0.3437
   2174 H          28.0710   17.4396    2.7686 H     544  UNL544      0.1146
   2175 H          29.2383   16.3501    3.0844 H     544  UNL544      0.1146
   2176 H          29.0002   17.6037    4.0948 H     544  UNL544      0.1146
   2177 N          28.4289   17.0667    6.5527 N.3   545  UNL545     -0.3437
   2178 H          28.5666   16.4732    7.3695 H     545  UNL545      0.1146
   2179 H          28.7080   18.0047    6.8368 H     545  UNL545      0.1146
   2180 H          29.1186   16.7644    5.8663 H     545  UNL545      0.1146
   2181 N          28.5127   19.7156    1.4786 N.3   546  UNL546     -0.3437
   2182 H          28.0710   18.8438    1.1901 H     546  UNL546      0.1146
   2183 H          29.2383   19.4557    2.1452 H     546  UNL546      0.1146
   2184 H          29.0002   20.0690    0.6565 H     546  UNL546      0.1146
   2185 N          26.6904   19.7479    6.4674 N.3   547  UNL547     -0.3437
   2186 H          25.8844   19.6980    7.0889 H     547  UNL547      0.1146
   2187 H          27.5091   19.7927    7.0724 H     547  UNL547      0.1146
   2188 H          26.7383   18.8455    5.9965 H     547  UNL547      0.1146
   2189 N          28.4762   21.8445    0.9364 N.3   548  UNL548     -0.3437
   2190 H          28.6040   21.4613    1.8719 H     548  UNL548      0.1146
   2191 H          28.3811   22.8520    1.0561 H     548  UNL548      0.1146
   2192 H          29.3608   21.7016    0.4511 H     548  UNL548      0.1146
   2193 N          28.5127   22.1594    3.4786 N.3   549  UNL549     -0.3437
   2194 H          28.0710   21.2876    3.1901 H     549  UNL549      0.1146
   2195 H          29.2383   21.8995    4.1452 H     549  UNL549      0.1146
   2196 H          29.0002   22.5128    2.6565 H     549  UNL549      0.1146
   2197 N          28.4289   21.9543    6.5527 N.3   550  UNL550     -0.3437
   2198 H          28.5666   21.3608    7.3695 H     550  UNL550      0.1146
   2199 H          28.7080   22.8923    6.8368 H     550  UNL550      0.1146
   2200 H          29.1186   21.6520    5.8663 H     550  UNL550      0.1146
   2201 N          28.5127   24.6032    1.4786 N.3   551  UNL551     -0.3437
   2202 H          28.0710   23.7314    1.1901 H     551  UNL551      0.1146
   2203 H          29.2383   24.3433    2.1452 H     551  UNL551      0.1146
   2204 H          29.0002   24.9566    0.6565 H     551  UNL551      0.1146
   2205 N          28.5127   24.6032    3.7673 N.3   552  UNL552     -0.3437
   2206 H          28.0710   23.7314    3.4788 H     552  UNL552      0.1146
   2207 H          29.2383   24.3433    4.4339 H     552  UNL552      0.1146
   2208 H          29.0002   24.9566    2.9452 H     552  UNL552      0.1146
   2209 N          28.5127   27.0470    1.1899 N.3   553  UNL553     -0.3437
   2210 H          28.0710   26.1752    0.9014 H     553  UNL553      0.1146
   2211 H          29.2383   26.7871    1.8565 H     553  UNL553      0.1146
   2212 H          29.0002   27.4004    0.3678 H     553  UNL553      0.1146
   2213 N          28.5127   27.0470    3.4786 N.3   554  UNL554     -0.3437
   2214 H          28.0710   26.1752    3.1901 H     554  UNL554      0.1146
   2215 H          29.2383   26.7871    4.1452 H     554  UNL554      0.1146
   2216 H          29.0002   27.4004    2.6565 H     554  UNL554      0.1146
   2217 N          28.4289   26.8419    6.5527 N.3   555  UNL555     -0.3437
   2218 H          28.5666   26.2484    7.3695 H     555  UNL555      0.1146
   2219 H          28.7080   27.7799    6.8368 H     555  UNL555      0.1146
   2220 H          29.1186   26.5396    5.8663 H     555  UNL555      0.1146
   2221 N          28.7193   29.4841    3.1398 N.3   556  UNL556     -0.3437
   2222 H          28.0978   29.8070    3.8800 H     556  UNL556      0.1146
   2223 H          29.6254   29.3318    3.5804 H     556  UNL556      0.1146
   2224 H          28.3796   28.5621    2.8701 H     556  UNL556      0.1146
   2225 N          28.4289   29.2857    6.5527 N.3   557  UNL557     -0.3437
   2226 H          28.5666   28.6922    7.3695 H     557  UNL557      0.1146
   2227 H          28.7080   30.2237    6.8368 H     557  UNL557      0.1146
   2228 H          29.1186   28.9834    5.8663 H     557  UNL557      0.1146
   2229 N          28.5127   32.7125    0.8566 N.3   558  UNL558     -0.3437
   2230 H          28.0710   33.0031    1.7277 H     558  UNL558      0.1146
   2231 H          29.2383   33.4021    0.6659 H     558  UNL558      0.1146
   2232 H          29.0002   31.8424    1.0655 H     558  UNL558      0.1146
   2233 N          28.5127   31.7125    3.1453 N.3   559  UNL559     -0.3437
   2234 H          28.0710   32.0031    4.0164 H     559  UNL559      0.1146
   2235 H          29.2383   32.4021    2.9546 H     559  UNL559      0.1146
   2236 H          29.0002   30.8424    3.3542 H     559  UNL559      0.1146
   2237 N          28.9991   32.7125    6.6349 N.3   560  UNL560     -0.3437
   2238 H          28.5655   33.0031    5.7597 H     560  UNL560      0.1146
   2239 H          28.7176   33.4021    7.3303 H     560  UNL560      0.1146
   2240 H          28.5400   31.8424    6.9004 H     560  UNL560      0.1146
   2241 N          30.7068   -0.0569    0.8566 N.3   561  UNL561     -0.3437
   2242 H          30.2651    0.2337    1.7277 H     561  UNL561      0.1146
   2243 H          31.4324    0.6327    0.6659 H     561  UNL561      0.1146
   2244 H          31.1943   -0.9270    1.0655 H     561  UNL561      0.1146
   2245 N          30.6704   -0.1498    3.2251 N.3   562  UNL562     -0.3437
   2246 H          30.7981   -0.5330    4.1606 H     562  UNL562      0.1146
   2247 H          30.5753    0.8577    3.3448 H     562  UNL562      0.1146
   2248 H          31.5550   -0.2926    2.7399 H     562  UNL562      0.1146
   2249 N          30.7068    2.6090    1.4786 N.3   563  UNL563     -0.3437
   2250 H          30.2651    1.7372    1.1901 H     563  UNL563      0.1146
   2251 H          31.4324    2.3491    2.1452 H     563  UNL563      0.1146
   2252 H          31.1943    2.9623    0.6565 H     563  UNL563      0.1146
   2253 N          30.7068    0.6090    5.7673 N.3   564  UNL564     -0.3437
   2254 H          30.2651   -0.2628    5.4788 H     564  UNL564      0.1146
   2255 H          31.4324    0.3491    6.4339 H     564  UNL564      0.1146
   2256 H          31.1943    0.9623    4.9452 H     564  UNL564      0.1146
   2257 N          30.7068    4.8307    0.8566 N.3   565  UNL565     -0.3437
   2258 H          30.2651    5.1213    1.7277 H     565  UNL565      0.1146
   2259 H          31.4324    5.5203    0.6659 H     565  UNL565      0.1146
   2260 H          31.1943    3.9606    1.0655 H     565  UNL565      0.1146
   2261 N          30.9440    4.6395    3.1737 N.3   566  UNL566     -0.3437
   2262 H          29.9995    4.6415    3.5562 H     566  UNL566      0.1146
   2263 H          31.0837    5.5627    2.7654 H     566  UNL566      0.1146
   2264 H          31.5715    4.5891    3.9750 H     566  UNL566      0.1146
   2265 N          30.7068    3.0528    5.7673 N.3   567  UNL567     -0.3437
   2266 H          30.2651    2.1810    5.4788 H     567  UNL567      0.1146
   2267 H          31.4324    2.7929    6.4339 H     567  UNL567      0.1146
   2268 H          31.1943    3.4061    4.9452 H     567  UNL567      0.1146
   2269 N          30.7068    7.4966    1.4786 N.3   568  UNL568     -0.3437
   2270 H          30.2651    6.6248    1.1901 H     568  UNL568      0.1146
   2271 H          31.4324    7.2367    2.1452 H     568  UNL568      0.1146
   2272 H          31.1943    7.8500    0.6565 H     568  UNL568      0.1146
   2273 N          30.6853    5.1017    5.6923 N.3   569  UNL569     -0.3437
   2274 H          30.7437    5.7600    6.4679 H     569  UNL569      0.1146
   2275 H          30.5604    5.6665    4.8533 H     569  UNL569      0.1146
   2276 H          31.6093    4.6798    5.6118 H     569  UNL569      0.1146
   2277 N          30.7068    9.7183    0.8566 N.3   570  UNL570     -0.3437
   2278 H          30.2651   10.0089    1.7277 H     570  UNL570      0.1146
   2279 H          31.4324   10.4079    0.6659 H     570  UNL570      0.1146
   2280 H          31.1943    8.8482    1.0655 H     570  UNL570      0.1146
   2281 N          30.9440    9.5271    3.1737 N.3   571  UNL571     -0.3437
   2282 H          29.9995    9.5291    3.5562 H     571  UNL571      0.1146
   2283 H          31.0837   10.4503    2.7654 H     571  UNL571      0.1146
   2284 H          31.5715    9.4767    3.9750 H     571  UNL571      0.1146
   2285 N          30.6230    9.7353    6.5527 N.3   572  UNL572     -0.3437
   2286 H          30.7607    9.1417    7.3695 H     572  UNL572      0.1146
   2287 H          30.9021   10.6733    6.8368 H     572  UNL572      0.1146
   2288 H          31.3128    9.4329    5.8663 H     572  UNL572      0.1146
   2289 N          30.8370   12.1621   -0.9223 N.3   573  UNL573     -0.3437
   2290 H          31.7992   12.4527   -1.0897 H     573  UNL573      0.1146
   2291 H          30.2499   12.8517   -1.3895 H     573  UNL573      0.1146
   2292 H          30.7126   11.2920   -1.4379 H     573  UNL573      0.1146
   2293 N          30.7068   12.1621    0.8566 N.3   574  UNL574     -0.3437
   2294 H          30.2651   12.4527    1.7277 H     574  UNL574      0.1146
   2295 H          31.4324   12.8517    0.6659 H     574  UNL574      0.1146
   2296 H          31.1943   11.2920    1.0655 H     574  UNL574      0.1146
   2297 N          30.7068   12.0280    3.5227 N.3   575  UNL575     -0.3437
   2298 H          30.2651   12.5519    2.7686 H     575  UNL575      0.1146
   2299 H          31.4324   11.4625    3.0844 H     575  UNL575      0.1146
   2300 H          31.1943   12.7161    4.0948 H     575  UNL575      0.1146
   2301 N          30.6230   12.1791    6.5527 N.3   576  UNL576     -0.3437
   2302 H          30.7607   11.5855    7.3695 H     576  UNL576      0.1146
   2303 H          30.9021   13.1171    6.8368 H     576  UNL576      0.1146
   2304 H          31.3128   11.8767    5.8663 H     576  UNL576      0.1146
   2305 N          30.9134   14.8213    0.8511 N.3   577  UNL577     -0.3437
   2306 H          30.2920   15.1442    1.5913 H     577  UNL577      0.1146
   2307 H          31.8196   14.6690    1.2917 H     577  UNL577      0.1146
   2308 H          30.5737   13.8992    0.5814 H     577  UNL577      0.1146
   2309 N          30.9134   14.8213    3.1398 N.3   578  UNL578     -0.3437
   2310 H          30.2920   15.1442    3.8800 H     578  UNL578      0.1146
   2311 H          31.8196   14.6690    3.5804 H     578  UNL578      0.1146
   2312 H          30.5737   13.8992    2.8701 H     578  UNL578      0.1146
   2313 N          30.6230   14.6229    6.5527 N.3   579  UNL579     -0.3437
   2314 H          30.7607   14.0293    7.3695 H     579  UNL579      0.1146
   2315 H          30.9021   15.5609    6.8368 H     579  UNL579      0.1146
   2316 H          31.3128   14.3206    5.8663 H     579  UNL579      0.1146
   2317 N          30.8370   17.0497   -0.9223 N.3   580  UNL580     -0.3437
   2318 H          31.7992   17.3403   -1.0897 H     580  UNL580      0.1146
   2319 H          30.2499   17.7393   -1.3895 H     580  UNL580      0.1146
   2320 H          30.7126   16.1796   -1.4379 H     580  UNL580      0.1146
   2321 N          30.7068   17.0497    0.8566 N.3   581  UNL581     -0.3437
   2322 H          30.2651   17.3403    1.7277 H     581  UNL581      0.1146
   2323 H          31.4324   17.7393    0.6659 H     581  UNL581      0.1146
   2324 H          31.1943   16.1796    1.0655 H     581  UNL581      0.1146
   2325 N          30.9440   16.8586    3.1737 N.3   582  UNL582     -0.3437
   2326 H          29.9995   16.8605    3.5562 H     582  UNL582      0.1146
   2327 H          31.0837   17.7817    2.7654 H     582  UNL582      0.1146
   2328 H          31.5715   16.8081    3.9750 H     582  UNL582      0.1146
   2329 N          30.6230   17.0667    6.5527 N.3   583  UNL583     -0.3437
   2330 H          30.7607   16.4732    7.3695 H     583  UNL583      0.1146
   2331 H          30.9021   18.0047    6.8368 H     583  UNL583      0.1146
   2332 H          31.3128   16.7644    5.8663 H     583  UNL583      0.1146
   2333 N          30.7068   19.7156    1.4786 N.3   584  UNL584     -0.3437
   2334 H          30.2651   18.8438    1.1901 H     584  UNL584      0.1146
   2335 H          31.4324   19.4557    2.1452 H     584  UNL584      0.1146
   2336 H          31.1943   20.0690    0.6565 H     584  UNL584      0.1146
   2337 N          30.7068   19.7156    3.7673 N.3   585  UNL585     -0.3437
   2338 H          30.2651   18.8438    3.4788 H     585  UNL585      0.1146
   2339 H          31.4324   19.4557    4.4339 H     585  UNL585      0.1146
   2340 H          31.1943   20.0690    2.9452 H     585  UNL585      0.1146
   2341 N          30.7068   21.9373    0.8566 N.3   586  UNL586     -0.3437
   2342 H          30.2651   22.2279    1.7277 H     586  UNL586      0.1146
   2343 H          31.4324   22.6269    0.6659 H     586  UNL586      0.1146
   2344 H          31.1943   21.0672    1.0655 H     586  UNL586      0.1146
   2345 N          30.6704   21.8445    3.2251 N.3   587  UNL587     -0.3437
   2346 H          30.7981   21.4613    4.1606 H     587  UNL587      0.1146
   2347 H          30.5753   22.8520    3.3448 H     587  UNL587      0.1146
   2348 H          31.5550   21.7016    2.7399 H     587  UNL587      0.1146
   2349 N          30.6230   21.9543    6.5527 N.3   588  UNL588     -0.3437
   2350 H          30.7607   21.3608    7.3695 H     588  UNL588      0.1146
   2351 H          30.9021   22.8923    6.8368 H     588  UNL588      0.1146
   2352 H          31.3128   21.6520    5.8663 H     588  UNL588      0.1146
   2353 N          30.9134   24.5965    0.8511 N.3   589  UNL589     -0.3437
   2354 H          30.2920   24.9194    1.5913 H     589  UNL589      0.1146
   2355 H          31.8196   24.4442    1.2917 H     589  UNL589      0.1146
   2356 H          30.5737   23.6744    0.5814 H     589  UNL589      0.1146
   2357 N          30.9134   24.5965    3.1398 N.3   590  UNL590     -0.3437
   2358 H          30.2920   24.9194    3.8800 H     590  UNL590      0.1146
   2359 H          31.8196   24.4442    3.5804 H     590  UNL590      0.1146
   2360 H          30.5737   23.6744    2.8701 H     590  UNL590      0.1146
   2361 N          30.6230   24.3981    6.5527 N.3   591  UNL591     -0.3437
   2362 H          30.7607   23.8046    7.3695 H     591  UNL591      0.1146
   2363 H          30.9021   25.3361    6.8368 H     591  UNL591      0.1146
   2364 H          31.3128   24.0958    5.8663 H     591  UNL591      0.1146
   2365 N          30.8370   26.8249   -0.9223 N.3   592  UNL592     -0.3437
   2366 H          31.7992   27.1155   -1.0897 H     592  UNL592      0.1146
   2367 H          30.2499   27.5145   -1.3895 H     592  UNL592      0.1146
   2368 H          30.7126   25.9548   -1.4379 H     592  UNL592      0.1146
   2369 N          30.7068   27.0470    1.1899 N.3   593  UNL593     -0.3437
   2370 H          30.2651   26.1752    0.9014 H     593  UNL593      0.1146
   2371 H          31.4324   26.7871    1.8565 H     593  UNL593      0.1146
   2372 H          31.1943   27.4004    0.3678 H     593  UNL593      0.1146
   2373 N          30.7068   27.0470    3.4786 N.3   594  UNL594     -0.3437
   2374 H          30.2651   26.1752    3.1901 H     594  UNL594      0.1146
   2375 H          31.4324   26.7871    4.1452 H     594  UNL594      0.1146
   2376 H          31.1943   27.4004    2.6565 H     594  UNL594      0.1146
   2377 N          30.6230   26.8419    6.5527 N.3   595  UNL595     -0.3437
   2378 H          30.7607   26.2484    7.3695 H     595  UNL595      0.1146
   2379 H          30.9021   27.7799    6.8368 H     595  UNL595      0.1146
   2380 H          31.3128   26.5396    5.8663 H     595  UNL595      0.1146
   2381 N          30.9134   29.4841    0.8511 N.3   596  UNL596     -0.3437
   2382 H          30.2920   29.8070    1.5913 H     596  UNL596      0.1146
   2383 H          31.8196   29.3318    1.2917 H     596  UNL596      0.1146
   2384 H          30.5737   28.5621    0.5814 H     596  UNL596      0.1146
   2385 N          30.7068   29.2687    3.1453 N.3   597  UNL597     -0.3437
   2386 H          30.2651   29.5593    4.0164 H     597  UNL597      0.1146
   2387 H          31.4324   29.9583    2.9546 H     597  UNL597      0.1146
   2388 H          31.1943   28.3986    3.3542 H     597  UNL597      0.1146
   2389 N          30.6230   29.2857    6.5527 N.3   598  UNL598     -0.3437
   2390 H          30.7607   28.6922    7.3695 H     598  UNL598      0.1146
   2391 H          30.9021   30.2237    6.8368 H     598  UNL598      0.1146
   2392 H          31.3128   28.9834    5.8663 H     598  UNL598      0.1146
   2393 N          30.7068   32.7125    0.8566 N.3   599  UNL599     -0.3437
   2394 H          30.2651   33.0031    1.7277 H     599  UNL599      0.1146
   2395 H          31.4324   33.4021    0.6659 H     599  UNL599      0.1146
   2396 H          31.1943   31.8424    1.0655 H     599  UNL599      0.1146
   2397 N          30.8845   32.9669    3.1787 N.3   600  UNL600     -0.3437
   2398 H          30.0785   32.9170    3.8002 H     600  UNL600      0.1146
   2399 H          31.7033   33.0117    3.7837 H     600  UNL600      0.1146
   2400 H          30.9324   32.0645    2.7078 H     600  UNL600      0.1146
   2401 N          30.7068   31.7125    5.4340 N.3   601  UNL601     -0.3437
   2402 H          30.2651   32.0031    6.3051 H     601  UNL601      0.1146
   2403 H          31.4324   32.4021    5.2433 H     601  UNL601      0.1146
   2404 H          31.1943   30.8424    5.6429 H     601  UNL601      0.1146
   2405 N          33.9010    0.1652    1.1899 N.3   602  UNL602     -0.3437
   2406 H          33.4593   -0.7066    0.9014 H     602  UNL602      0.1146
   2407 H          34.6266   -0.0947    1.8565 H     602  UNL602      0.1146
   2408 H          34.3885    0.5185    0.3678 H     602  UNL602      0.1146
   2409 N          33.9010    0.1652    3.4786 N.3   603  UNL603     -0.3437
   2410 H          33.4593   -0.7066    3.1901 H     603  UNL603      0.1146
   2411 H          34.6266   -0.0947    4.1452 H     603  UNL603      0.1146
   2412 H          34.3885    0.5185    2.6565 H     603  UNL603      0.1146
   2413 N          33.9010    0.1652    5.7673 N.3   604  UNL604     -0.3437
   2414 H          33.4593   -0.7066    5.4788 H     604  UNL604      0.1146
   2415 H          34.6266   -0.0947    6.4339 H     604  UNL604      0.1146
   2416 H          34.3885    0.5185    4.9452 H     604  UNL604      0.1146
   2417 N          33.9010    2.6090    1.1899 N.3   605  UNL605     -0.3437
   2418 H          33.4593    1.7372    0.9014 H     605  UNL605      0.1146
   2419 H          34.6266    2.3491    1.8565 H     605  UNL605      0.1146
   2420 H          34.3885    2.9623    0.3678 H     605  UNL605      0.1146
   2421 N          33.9010    2.6090    3.4786 N.3   606  UNL606     -0.3437
   2422 H          33.4593    1.7372    3.1901 H     606  UNL606      0.1146
   2423 H          34.6266    2.3491    4.1452 H     606  UNL606      0.1146
   2424 H          34.3885    2.9623    2.6565 H     606  UNL606      0.1146
   2425 N          33.8172    2.4039    6.5527 N.3   607  UNL607     -0.3437
   2426 H          33.9549    1.8103    7.3695 H     607  UNL607      0.1146
   2427 H          34.0963    3.3418    6.8368 H     607  UNL607      0.1146
   2428 H          34.5069    2.1015    5.8663 H     607  UNL607      0.1146
   2429 N          33.9010    4.6966    1.2340 N.3   608  UNL608     -0.3437
   2430 H          33.4593    5.2205    0.4799 H     608  UNL608      0.1146
   2431 H          34.6266    4.1311    0.7956 H     608  UNL608      0.1146
   2432 H          34.3885    5.3846    1.8061 H     608  UNL608      0.1146
   2433 N          33.9010    5.0528    3.4786 N.3   609  UNL609     -0.3437
   2434 H          33.4593    4.1810    3.1901 H     609  UNL609      0.1146
   2435 H          34.6266    4.7929    4.1452 H     609  UNL609      0.1146
   2436 H          34.3885    5.4061    2.6565 H     609  UNL609      0.1146
   2437 N          32.9010    5.0528    5.7673 N.3   610  UNL610     -0.3437
   2438 H          32.4593    4.1810    5.4788 H     610  UNL610      0.1146
   2439 H          33.6266    4.7929    6.4339 H     610  UNL610      0.1146
   2440 H          33.3885    5.4061    4.9452 H     610  UNL610      0.1146
   2441 N          33.9010    7.4966    1.1899 N.3   611  UNL611     -0.3437
   2442 H          33.4593    6.6248    0.9014 H     611  UNL611      0.1146
   2443 H          34.6266    7.2367    1.8565 H     611  UNL611      0.1146
   2444 H          34.3885    7.8500    0.3678 H     611  UNL611      0.1146
   2445 N          33.0787    7.5289    3.1787 N.3   612  UNL612     -0.3437
   2446 H          32.2726    7.4790    3.8002 H     612  UNL612      0.1146
   2447 H          33.8974    7.5737    3.7837 H     612  UNL612      0.1146
   2448 H          33.1265    6.6265    2.7078 H     612  UNL612      0.1146
   2449 N          34.2313    7.1640    6.4340 N.3   613  UNL613     -0.3437
   2450 H          34.2628    6.6362    7.3051 H     613  UNL613      0.1146
   2451 H          33.2446    7.3326    6.2433 H     613  UNL613      0.1146
   2452 H          34.6366    8.0753    6.6429 H     613  UNL613      0.1146
   2453 N          33.9010    9.9404    1.1899 N.3   614  UNL614     -0.3437
   2454 H          33.4593    9.0686    0.9014 H     614  UNL614      0.1146
   2455 H          34.6266    9.6805    1.8565 H     614  UNL614      0.1146
   2456 H          34.3885   10.2938    0.3678 H     614  UNL614      0.1146
   2457 N          33.9010    9.9404    3.4786 N.3   615  UNL615     -0.3437
   2458 H          33.4593    9.0686    3.1901 H     615  UNL615      0.1146
   2459 H          34.6266    9.6805    4.1452 H     615  UNL615      0.1146
   2460 H          34.3885   10.2938    2.6565 H     615  UNL615      0.1146
   2461 N          33.8172    9.7353    6.5527 N.3   616  UNL616     -0.3437
   2462 H          33.9549    9.1417    7.3695 H     616  UNL616      0.1146
   2463 H          34.0963   10.6733    6.8368 H     616  UNL616      0.1146
   2464 H          34.5069    9.4329    5.8663 H     616  UNL616      0.1146
   2465 N          33.9010   12.3842    1.1899 N.3   617  UNL617     -0.3437
   2466 H          33.4593   11.5124    0.9014 H     617  UNL617      0.1146
   2467 H          34.6266   12.1243    1.8565 H     617  UNL617      0.1146
   2468 H          34.3885   12.7376    0.3678 H     617  UNL617      0.1146
   2469 N          33.9010   12.3842    3.4786 N.3   618  UNL618     -0.3437
   2470 H          33.4593   11.5124    3.1901 H     618  UNL618      0.1146
   2471 H          34.6266   12.1243    4.1452 H     618  UNL618      0.1146
   2472 H          34.3885   12.7376    2.6565 H     618  UNL618      0.1146
   2473 N          34.2313   12.0516    6.4340 N.3   619  UNL619     -0.3437
   2474 H          34.2628   11.5238    7.3051 H     619  UNL619      0.1146
   2475 H          33.2446   12.2202    6.2433 H     619  UNL619      0.1146
   2476 H          34.6366   12.9629    6.6429 H     619  UNL619      0.1146
   2477 N          33.9010   14.8280    1.1899 N.3   620  UNL620     -0.3437
   2478 H          33.4593   13.9562    0.9014 H     620  UNL620      0.1146
   2479 H          34.6266   14.5681    1.8565 H     620  UNL620      0.1146
   2480 H          34.3885   15.1814    0.3678 H     620  UNL620      0.1146
   2481 N          33.9010   14.8280    3.4786 N.3   621  UNL621     -0.3437
   2482 H          33.4593   13.9562    3.1901 H     621  UNL621      0.1146
   2483 H          34.6266   14.5681    4.1452 H     621  UNL621      0.1146
   2484 H          34.3885   15.1814    2.6565 H     621  UNL621      0.1146
   2485 N          33.8172   14.6229    6.5527 N.3   622  UNL622     -0.3437
   2486 H          33.9549   14.0293    7.3695 H     622  UNL622      0.1146
   2487 H          34.0963   15.5609    6.8368 H     622  UNL622      0.1146
   2488 H          34.5069   14.3206    5.8663 H     622  UNL622      0.1146
   2489 N          33.9010   17.2718    1.1899 N.3   623  UNL623     -0.3437
   2490 H          33.4593   16.4000    0.9014 H     623  UNL623      0.1146
   2491 H          34.6266   17.0119    1.8565 H     623  UNL623      0.1146
   2492 H          34.3885   17.6252    0.3678 H     623  UNL623      0.1146
   2493 N          33.0787   17.3041    3.1787 N.3   624  UNL624     -0.3437
   2494 H          32.2726   17.2542    3.8002 H     624  UNL624      0.1146
   2495 H          33.8974   17.3489    3.7837 H     624  UNL624      0.1146
   2496 H          33.1265   16.4017    2.7078 H     624  UNL624      0.1146
   2497 N          34.2313   16.9392    6.4340 N.3   625  UNL625     -0.3437
   2498 H          34.2628   16.4114    7.3051 H     625  UNL625      0.1146
   2499 H          33.2446   17.1078    6.2433 H     625  UNL625      0.1146
   2500 H          34.6366   17.8505    6.6429 H     625  UNL625      0.1146
   2501 N          33.9010   19.7156    1.1899 N.3   626  UNL626     -0.3437
   2502 H          33.4593   18.8438    0.9014 H     626  UNL626      0.1146
   2503 H          34.6266   19.4557    1.8565 H     626  UNL626      0.1146
   2504 H          34.3885   20.0690    0.3678 H     626  UNL626      0.1146
   2505 N          33.9010   19.7156    3.4786 N.3   627  UNL627     -0.3437
   2506 H          33.4593   18.8438    3.1901 H     627  UNL627      0.1146
   2507 H          34.6266   19.4557    4.1452 H     627  UNL627      0.1146
   2508 H          34.3885   20.0690    2.6565 H     627  UNL627      0.1146
   2509 N          33.8172   19.5105    6.5527 N.3   628  UNL628     -0.3437
   2510 H          33.9549   18.9170    7.3695 H     628  UNL628      0.1146
   2511 H          34.0963   20.4485    6.8368 H     628  UNL628      0.1146
   2512 H          34.5069   19.2082    5.8663 H     628  UNL628      0.1146
   2513 N          33.9010   22.1594    1.1899 N.3   629  UNL629     -0.3437
   2514 H          33.4593   21.2876    0.9014 H     629  UNL629      0.1146
   2515 H          34.6266   21.8995    1.8565 H     629  UNL629      0.1146
   2516 H          34.3885   22.5128    0.3678 H     629  UNL629      0.1146
   2517 N          33.9010   22.1594    3.4786 N.3   630  UNL630     -0.3437
   2518 H          33.4593   21.2876    3.1901 H     630  UNL630      0.1146
   2519 H          34.6266   21.8995    4.1452 H     630  UNL630      0.1146
   2520 H          34.3885   22.5128    2.6565 H     630  UNL630      0.1146
   2521 N          34.2313   21.8268    6.4340 N.3   631  UNL631     -0.3437
   2522 H          34.2628   21.2990    7.3051 H     631  UNL631      0.1146
   2523 H          33.2446   21.9954    6.2433 H     631  UNL631      0.1146
   2524 H          34.6366   22.7381    6.6429 H     631  UNL631      0.1146
   2525 N          34.3790   24.3811    3.2948 N.3   632  UNL632     -0.3437
   2526 H          33.7981   24.6717    2.5096 H     632  UNL632      0.1146
   2527 H          34.2243   25.0707    4.0289 H     632  UNL632      0.1146
   2528 H          33.9738   23.5110    3.6370 H     632  UNL632      0.1146
   2529 N          34.2313   24.2706    5.4340 N.3   633  UNL633     -0.3437
   2530 H          34.2628   23.7428    6.3051 H     633  UNL633      0.1146
   2531 H          33.2446   24.4392    5.2433 H     633  UNL633      0.1146
   2532 H          34.6366   25.1819    5.6429 H     633  UNL633      0.1146
   2533 N          33.9010   27.0470    1.1899 N.3   634  UNL634     -0.3437
   2534 H          33.4593   26.1752    0.9014 H     634  UNL634      0.1146
   2535 H          34.6266   26.7871    1.8565 H     634  UNL634      0.1146
   2536 H          34.3885   27.4004    0.3678 H     634  UNL634      0.1146
   2537 N          33.9010   27.0470    3.4786 N.3   635  UNL635     -0.3437
   2538 H          33.4593   26.1752    3.1901 H     635  UNL635      0.1146
   2539 H          34.6266   26.7871    4.1452 H     635  UNL635      0.1146
   2540 H          34.3885   27.4004    2.6565 H     635  UNL635      0.1146
   2541 N          33.8172   26.8419    6.5527 N.3   636  UNL636     -0.3437
   2542 H          33.9549   26.2484    7.3695 H     636  UNL636      0.1146
   2543 H          34.0963   27.7799    6.8368 H     636  UNL636      0.1146
   2544 H          34.5069   26.5396    5.8663 H     636  UNL636      0.1146
   2545 N          33.9010   29.1346    1.2340 N.3   637  UNL637     -0.3437
   2546 H          33.4593   29.6586    0.4799 H     637  UNL637      0.1146
   2547 H          34.6266   28.5691    0.7956 H     637  UNL637      0.1146
   2548 H          34.3885   29.8227    1.8061 H     637  UNL637      0.1146
   2549 N          32.9010   29.2687    3.1453 N.3   638  UNL638     -0.3437
   2550 H          32.4593   29.5593    4.0164 H     638  UNL638      0.1146
   2551 H          33.6266   29.9583    2.9546 H     638  UNL638      0.1146
   2552 H          33.3885   28.3986    3.3542 H     638  UNL638      0.1146
   2553 N          34.2313   29.1582    6.4340 N.3   639  UNL639     -0.3437
   2554 H          34.2628   28.6304    7.3051 H     639  UNL639      0.1146
   2555 H          33.2446   29.3268    6.2433 H     639  UNL639      0.1146
   2556 H          34.6366   30.0695    6.6429 H     639  UNL639      0.1146
   2557 N          33.0311   32.7125    1.3664 N.3   640  UNL640     -0.3437
   2558 H          33.9933   33.0031    1.1990 H     640  UNL640      0.1146
   2559 H          32.4441   33.4021    0.8992 H     640  UNL640      0.1146
   2560 H          32.9067   31.8424    0.8509 H     640  UNL640      0.1146
   2561 N          34.2473   32.5214    3.4941 N.3   641  UNL641     -0.3437
   2562 H          34.3285   32.5234    2.4784 H     641  UNL641      0.1146
   2563 H          34.5497   33.4446    3.8019 H     641  UNL641      0.1146
   2564 H          33.2498   32.4709    3.6960 H     641  UNL641      0.1146
   2565 N          32.8050   31.7198    6.5967 N.3   642  UNL642     -0.3437
   2566 H          33.0712   32.6382    6.9489 H     642  UNL642      0.1146
   2567 H          33.3890   31.5527    5.7785 H     642  UNL642      0.1146
   2568 H          33.1100   31.0496    7.3011 H     642  UNL642      0.1146
@<TRIPOS>BOND
     1     1     2    1
     2     1     3    1
     3     1     4    1
     4     5     6    1
     5     5     7    1
     6     5     8    1
     7     9    10    1
     8     9    11    1
     9     9    12    1
    10    13    14    1
    11    13    15    1
    12    13    16    1
    13    17    18    1
    14    17    19    1
    15    17    20    1
    16    21    22    1
    17    21    23    1
    18    21    24    1
    19    25    26    1
    20    25    27    1
    21    25    28    1
    22    29    30    1
    23    29    31    1
    24    29    32    1
    25    33    34    1
    26    33    35    1
    27    33    36    1
    28    37    38    1
    29    37    39    1
    30    37    40    1
    31    41    42    1
    32    41    43    1
    33    41    44    1
    34    45    46    1
    35    45    47    1
    36    45    48    1
    37    49    50    1
    38    49    51    1
    39    49    52    1
    40    53    54    1
    41    53    55    1
    42    53    56    1
    43    57    58    1
    44    57    59    1
    45    57    60    1
    46    61    62    1
    47    61    63    1
    48    61    64    1
    49    65    66    1
    50    65    67    1
    51    65    68    1
    52    69    70    1
    53    69    71    1
    54    69    72    1
    55    73    74    1
    56    73    75    1
    57    73    76    1
    58    77    78    1
    59    77    79    1
    60    77    80    1
    61    81    82    1
    62    81    83    1
    63    81    84    1
    64    85    86    1
    65    85    87    1
    66    85    88    1
    67    89    90    1
    68    89    91    1
    69    89    92    1
    70    93    94    1
    71    93    95    1
    72    93    96    1
    73    97    98    1
    74    97    99    1
    75    97   100    1
    76   101   102    1
    77   101   103    1
    78   101   104    1
    79   105   106    1
    80   105   107    1
    81   105   108    1
    82   109   110    1
    83   109   111    1
    84   109   112    1
    85   113   114    1
    86   113   115    1
    87   113   116    1
    88   117   118    1
    89   117   119    1
    90   117   120    1
    91   121   122    1
    92   121   123    1
    93   121   124    1
    94   125   126    1
    95   125   127    1
    96   125   128    1
    97   129   130    1
    98   129   131    1
    99   129   132    1
   100   133   134    1
   101   133   135    1
   102   133   136    1
   103   137   138    1
   104   137   139    1
   105   137   140    1
   106   141   142    1
   107   141   143    1
   108   141   144    1
   109   145   146    1
   110   145   147    1
   111   145   148    1
   112   149   150    1
   113   149   151    1
   114   149   152    1
   115   153   154    1
   116   153   155    1
   117   153   156    1
   118   157   158    1
   119   157   159    1
   120   157   160    1
   121   161   162    1
   122   161   163    1
   123   161   164    1
   124   165   166    1
   125   165   167    1
   126   165   168    1
   127   169   170    1
   128   169   171    1
   129   169   172    1
   130   173   174    1
   131   173   175    1
   132   173   176    1
   133   177   178    1
   134   177   179    1
   135   177   180    1
   136   181   182    1
   137   181   183    1
   138   181   184    1
   139   185   186    1
   140   185   187    1
   141   185   188    1
   142   189   190    1
   143   189   191    1
   144   189   192    1
   145   193   194    1
   146   193   195    1
   147   193   196    1
   148   197   198    1
   149   197   199    1
   150   197   200    1
   151   201   202    1
   152   201   203    1
   153   201   204    1
   154   205   206    1
   155   205   207    1
   156   205   208    1
   157   209   210    1
   158   209   211    1
   159   209   212    1
   160   213   214    1
   161   213   215    1
   162   213   216    1
   163   217   218    1
   164   217   219    1
   165   217   220    1
   166   221   222    1
   167   221   223    1
   168   221   224    1
   169   225   226    1
   170   225   227    1
   171   225   228    1
   172   229   230    1
   173   229   231    1
   174   229   232    1
   175   233   234    1
   176   233   235    1
   177   233   236    1
   178   237   238    1
   179   237   239    1
   180   237   240    1
   181   241   242    1
   182   241   243    1
   183   241   244    1
   184   245   246    1
   185   245   247    1
   186   245   248    1
   187   249   250    1
   188   249   251    1
   189   249   252    1
   190   253   254    1
   191   253   255    1
   192   253   256    1
   193   257   258    1
   194   257   259    1
   195   257   260    1
   196   261   262    1
   197   261   263    1
   198   261   264    1
   199   265   266    1
   200   265   267    1
   201   265   268    1
   202   269   270    1
   203   269   271    1
   204   269   272    1
   205   273   274    1
   206   273   275    1
   207   273   276    1
   208   277   278    1
   209   277   279    1
   210   277   280    1
   211   281   282    1
   212   281   283    1
   213   281   284    1
   214   285   286    1
   215   285   287    1
   216   285   288    1
   217   289   290    1
   218   289   291    1
   219   289   292    1
   220   293   294    1
   221   293   295    1
   222   293   296    1
   223   297   298    1
   224   297   299    1
   225   297   300    1
   226   301   302    1
   227   301   303    1
   228   301   304    1
   229   305   306    1
   230   305   307    1
   231   305   308    1
   232   309   310    1
   233   309   311    1
   234   309   312    1
   235   313   314    1
   236   313   315    1
   237   313   316    1
   238   317   318    1
   239   317   319    1
   240   317   320    1
   241   321   322    1
   242   321   323    1
   243   321   324    1
   244   325   326    1
   245   325   327    1
   246   325   328    1
   247   329   330    1
   248   329   331    1
   249   329   332    1
   250   333   334    1
   251   333   335    1
   252   333   336    1
   253   337   338    1
   254   337   339    1
   255   337   340    1
   256   341   342    1
   257   341   343    1
   258   341   344    1
   259   345   346    1
   260   345   347    1
   261   345   348    1
   262   349   350    1
   263   349   351    1
   264   349   352    1
   265   353   354    1
   266   353   355    1
   267   353   356    1
   268   357   358    1
   269   357   359    1
   270   357   360    1
   271   361   362    1
   272   361   363    1
   273   361   364    1
   274   365   366    1
   275   365   367    1
   276   365   368    1
   277   369   370    1
   278   369   371    1
   279   369   372    1
   280   373   374    1
   281   373   375    1
   282   373   376    1
   283   377   378    1
   284   377   379    1
   285   377   380    1
   286   381   382    1
   287   381   383    1
   288   381   384    1
   289   385   386    1
   290   385   387    1
   291   385   388    1
   292   389   390    1
   293   389   391    1
   294   389   392    1
   295   393   394    1
   296   393   395    1
   297   393   396    1
   298   397   398    1
   299   397   399    1
   300   397   400    1
   301   401   402    1
   302   401   403    1
   303   401   404    1
   304   405   406    1
   305   405   407    1
   306   405   408    1
   307   409   410    1
   308   409   411    1
   309   409   412    1
   310   413   414    1
   311   413   415    1
   312   413   416    1
   313   417   418    1
   314   417   419    1
   315   417   420    1
   316   421   422    1
   317   421   423    1
   318   421   424    1
   319   425   426    1
   320   425   427    1
   321   425   428    1
   322   429   430    1
   323   429   431    1
   324   429   432    1
   325   433   434    1
   326   433   435    1
   327   433   436    1
   328   437   438    1
   329   437   439    1
   330   437   440    1
   331   441   442    1
   332   441   443    1
   333   441   444    1
   334   445   446    1
   335   445   447    1
   336   445   448    1
   337   449   450    1
   338   449   451    1
   339   449   452    1
   340   453   454    1
   341   453   455    1
   342   453   456    1
   343   457   458    1
   344   457   459    1
   345   457   460    1
   346   461   462    1
   347   461   463    1
   348   461   464    1
   349   465   466    1
   350   465   467    1
   351   465   468    1
   352   469   470    1
   353   469   471    1
   354   469   472    1
   355   473   474    1
   356   473   475    1
   357   473   476    1
   358   477   478    1
   359   477   479    1
   360   477   480    1
   361   481   482    1
   362   481   483    1
   363   481   484    1
   364   485   486    1
   365   485   487    1
   366   485   488    1
   367   489   490    1
   368   489   491    1
   369   489   492    1
   370   493   494    1
   371   493   495    1
   372   493   496    1
   373   497   498    1
   374   497   499    1
   375   497   500    1
   376   501   502    1
   377   501   503    1
   378   501   504    1
   379   505   506    1
   380   505   507    1
   381   505   508    1
   382   509   510    1
   383   509   511    1
   384   509   512    1
   385   513   514    1
   386   513   515    1
   387   513   516    1
   388   517   518    1
   389   517   519    1
   390   517   520    1
   391   521   522    1
   392   521   523    1
   393   521   524    1
   394   525   526    1
   395   525   527    1
   396   525   528    1
   397   529   530    1
   398   529   531    1
   399   529   532    1
   400   533   534    1
   401   533   535    1
   402   533   536    1
   403   537   538    1
   404   537   539    1
   405   537   540    1
   406   541   542    1
   407   541   543    1
   408   541   544    1
   409   545   546    1
   410   545   547    1
   411   545   548    1
   412   549   550    1
   413   549   551    1
   414   549   552    1
   415   553   554    1
   416   553   555    1
   417   553   556    1
   418   557   558    1
   419   557   559    1
   420   557   560    1
   421   561   562    1
   422   561   563    1
   423   561   564    1
   424   565   566    1
   425   565   567    1
   426   565   568    1
   427   569   570    1
   428   569   571    1
   429   569   572    1
   430   573   574    1
   431   573   575    1
   432   573   576    1
   433   577   578    1
   434   577   579    1
   435   577   580    1
   436   581   582    1
   437   581   583    1
   438   581   584    1
   439   585   586    1
   440   585   587    1
   441   585   588    1
   442   589   590    1
   443   589   591    1
   444   589   592    1
   445   593   594    1
   446   593   595    1
   447   593   596    1
   448   597   598    1
   449   597   599    1
   450   597   600    1
   451   601   602    1
   452   601   603    1
   453   601   604    1
   454   605   606    1
   455   605   607    1
   456   605   608    1
   457   609   610    1
   458   609   611    1
   459   609   612    1
   460   613   614    1
   461   613   615    1
   462   613   616    1
   463   617   618    1
   464   617   619    1
   465   617   620    1
   466   621   622    1
   467   621   623    1
   468   621   624    1
   469   625   626    1
   470   625   627    1
   471   625   628    1
   472   629   630    1
   473   629   631    1
   474   629   632    1
   475   633   634    1
   476   633   635    1
   477   633   636    1
   478   637   638    1
   479   637   639    1
   480   637   640    1
   481   641   642    1
   482   641   643    1
   483   641   644    1
   484   645   646    1
   485   645   647    1
   486   645   648    1
   487   649   650    1
   488   649   651    1
   489   649   652    1
   490   653   654    1
   491   653   655    1
   492   653   656    1
   493   657   658    1
   494   657   659    1
   495   657   660    1
   496   661   662    1
   497   661   663    1
   498   661   664    1
   499   665   666    1
   500   665   667    1
   501   665   668    1
   502   669   670    1
   503   669   671    1
   504   669   672    1
   505   673   674    1
   506   673   675    1
   507   673   676    1
   508   677   678    1
   509   677   679    1
   510   677   680    1
   511   681   682    1
   512   681   683    1
   513   681   684    1
   514   685   686    1
   515   685   687    1
   516   685   688    1
   517   689   690    1
   518   689   691    1
   519   689   692    1
   520   693   694    1
   521   693   695    1
   522   693   696    1
   523   697   698    1
   524   697   699    1
   525   697   700    1
   526   701   702    1
   527   701   703    1
   528   701   704    1
   529   705   706    1
   530   705   707    1
   531   705   708    1
   532   709   710    1
   533   709   711    1
   534   709   712    1
   535   713   714    1
   536   713   715    1
   537   713   716    1
   538   717   718    1
   539   717   719    1
   540   717   720    1
   541   721   722    1
   542   721   723    1
   543   721   724    1
   544   725   726    1
   545   725   727    1
   546   725   728    1
   547   729   730    1
   548   729   731    1
   549   729   732    1
   550   733   734    1
   551   733   735    1
   552   733   736    1
   553   737   738    1
   554   737   739    1
   555   737   740    1
   556   741   742    1
   557   741   743    1
   558   741   744    1
   559   745   746    1
   560   745   747    1
   561   745   748    1
   562   749   750    1
   563   749   751    1
   564   749   752    1
   565   753   754    1
   566   753   755    1
   567   753   756    1
   568   757   758    1
   569   757   759    1
   570   757   760    1
   571   761   762    1
   572   761   763    1
   573   761   764    1
   574   765   766    1
   575   765   767    1
   576   765   768    1
   577   769   770    1
   578   769   771    1
   579   769   772    1
   580   773   774    1
   581   773   775    1
   582   773   776    1
   583   777   778    1
   584   777   779    1
   585   777   780    1
   586   781   782    1
   587   781   783    1
   588   781   784    1
   589   785   786    1
   590   785   787    1
   591   785   788    1
   592   789   790    1
   593   789   791    1
   594   789   792    1
   595   793   794    1
   596   793   795    1
   597   793   796    1
   598   797   798    1
   599   797   799    1
   600   797   800    1
   601   801   802    1
   602   801   803    1
   603   801   804    1
   604   805   806    1
   605   805   807    1
   606   805   808    1
   607   809   810    1
   608   809   811    1
   609   809   812    1
   610   813   814    1
   611   813   815    1
   612   813   816    1
   613   817   818    1
   614   817   819    1
   615   817   820    1
   616   821   822    1
   617   821   823    1
   618   821   824    1
   619   825   826    1
   620   825   827    1
   621   825   828    1
   622   829   830    1
   623   829   831    1
   624   829   832    1
   625   833   834    1
   626   833   835    1
   627   833   836    1
   628   837   838    1
   629   837   839    1
   630   837   840    1
   631   841   842    1
   632   841   843    1
   633   841   844    1
   634   845   846    1
   635   845   847    1
   636   845   848    1
   637   849   850    1
   638   849   851    1
   639   849   852    1
   640   853   854    1
   641   853   855    1
   642   853   856    1
   643   857   858    1
   644   857   859    1
   645   857   860    1
   646   861   862    1
   647   861   863    1
   648   861   864    1
   649   865   866    1
   650   865   867    1
   651   865   868    1
   652   869   870    1
   653   869   871    1
   654   869   872    1
   655   873   874    1
   656   873   875    1
   657   873   876    1
   658   877   878    1
   659   877   879    1
   660   877   880    1
   661   881   882    1
   662   881   883    1
   663   881   884    1
   664   885   886    1
   665   885   887    1
   666   885   888    1
   667   889   890    1
   668   889   891    1
   669   889   892    1
   670   893   894    1
   671   893   895    1
   672   893   896    1
   673   897   898    1
   674   897   899    1
   675   897   900    1
   676   901   902    1
   677   901   903    1
   678   901   904    1
   679   905   906    1
   680   905   907    1
   681   905   908    1
   682   909   910    1
   683   909   911    1
   684   909   912    1
   685   913   914    1
   686   913   915    1
   687   913   916    1
   688   917   918    1
   689   917   919    1
   690   917   920    1
   691   921   922    1
   692   921   923    1
   693   921   924    1
   694   925   926    1
   695   925   927    1
   696   925   928    1
   697   929   930    1
   698   929   931    1
   699   929   932    1
   700   933   934    1
   701   933   935    1
   702   933   936    1
   703   937   938    1
   704   937   939    1
   705   937   940    1
   706   941   942    1
   707   941   943    1
   708   941   944    1
   709   945   946    1
   710   945   947    1
   711   945   948    1
   712   949   950    1
   713   949   951    1
   714   949   952    1
   715   953   954    1
   716   953   955    1
   717   953   956    1
   718   957   958    1
   719   957   959    1
   720   957   960    1
   721   961   962    1
   722   961   963    1
   723   961   964    1
   724   965   966    1
   725   965   967    1
   726   965   968    1
   727   969   970    1
   728   969   971    1
   729   969   972    1
   730   973   974    1
   731   973   975    1
   732   973   976    1
   733   977   978    1
   734   977   979    1
   735   977   980    1
   736   981   982    1
   737   981   983    1
   738   981   984    1
   739   985   986    1
   740   985   987    1
   741   985   988    1
   742   989   990    1
   743   989   991    1
   744   989   992    1
   745   993   994    1
   746   993   995    1
   747   993   996    1
   748   997   998    1
   749   997   999    1
   750   997  1000    1
   751  1001  1002    1
   752  1001  1003    1
   753  1001  1004    1
   754  1005  1006    1
   755  1005  1007    1
   756  1005  1008    1
   757  1009  1010    1
   758  1009  1011    1
   759  1009  1012    1
   760  1013  1014    1
   761  1013  1015    1
   762  1013  1016    1
   763  1017  1018    1
   764  1017  1019    1
   765  1017  1020    1
   766  1021  1022    1
   767  1021  1023    1
   768  1021  1024    1
   769  1025  1026    1
   770  1025  1027    1
   771  1025  1028    1
   772  1029  1030    1
   773  1029  1031    1
   774  1029  1032    1
   775  1033  1034    1
   776  1033  1035    1
   777  1033  1036    1
   778  1037  1038    1
   779  1037  1039    1
   780  1037  1040    1
   781  1041  1042    1
   782  1041  1043    1
   783  1041  1044    1
   784  1045  1046    1
   785  1045  1047    1
   786  1045  1048    1
   787  1049  1050    1
   788  1049  1051    1
   789  1049  1052    1
   790  1053  1054    1
   791  1053  1055    1
   792  1053  1056    1
   793  1057  1058    1
   794  1057  1059    1
   795  1057  1060    1
   796  1061  1062    1
   797  1061  1063    1
   798  1061  1064    1
   799  1065  1066    1
   800  1065  1067    1
   801  1065  1068    1
   802  1069  1070    1
   803  1069  1071    1
   804  1069  1072    1
   805  1073  1074    1
   806  1073  1075    1
   807  1073  1076    1
   808  1077  1078    1
   809  1077  1079    1
   810  1077  1080    1
   811  1081  1082    1
   812  1081  1083    1
   813  1081  1084    1
   814  1085  1086    1
   815  1085  1087    1
   816  1085  1088    1
   817  1089  1090    1
   818  1089  1091    1
   819  1089  1092    1
   820  1093  1094    1
   821  1093  1095    1
   822  1093  1096    1
   823  1097  1098    1
   824  1097  1099    1
   825  1097  1100    1
   826  1101  1102    1
   827  1101  1103    1
   828  1101  1104    1
   829  1105  1106    1
   830  1105  1107    1
   831  1105  1108    1
   832  1109  1110    1
   833  1109  1111    1
   834  1109  1112    1
   835  1113  1114    1
   836  1113  1115    1
   837  1113  1116    1
   838  1117  1118    1
   839  1117  1119    1
   840  1117  1120    1
   841  1121  1122    1
   842  1121  1123    1
   843  1121  1124    1
   844  1125  1126    1
   845  1125  1127    1
   846  1125  1128    1
   847  1129  1130    1
   848  1129  1131    1
   849  1129  1132    1
   850  1133  1134    1
   851  1133  1135    1
   852  1133  1136    1
   853  1137  1138    1
   854  1137  1139    1
   855  1137  1140    1
   856  1141  1142    1
   857  1141  1143    1
   858  1141  1144    1
   859  1145  1146    1
   860  1145  1147    1
   861  1145  1148    1
   862  1149  1150    1
   863  1149  1151    1
   864  1149  1152    1
   865  1153  1154    1
   866  1153  1155    1
   867  1153  1156    1
   868  1157  1158    1
   869  1157  1159    1
   870  1157  1160    1
   871  1161  1162    1
   872  1161  1163    1
   873  1161  1164    1
   874  1165  1166    1
   875  1165  1167    1
   876  1165  1168    1
   877  1169  1170    1
   878  1169  1171    1
   879  1169  1172    1
   880  1173  1174    1
   881  1173  1175    1
   882  1173  1176    1
   883  1177  1178    1
   884  1177  1179    1
   885  1177  1180    1
   886  1181  1182    1
   887  1181  1183    1
   888  1181  1184    1
   889  1185  1186    1
   890  1185  1187    1
   891  1185  1188    1
   892  1189  1190    1
   893  1189  1191    1
   894  1189  1192    1
   895  1193  1194    1
   896  1193  1195    1
   897  1193  1196    1
   898  1197  1198    1
   899  1197  1199    1
   900  1197  1200    1
   901  1201  1202    1
   902  1201  1203    1
   903  1201  1204    1
   904  1205  1206    1
   905  1205  1207    1
   906  1205  1208    1
   907  1209  1210    1
   908  1209  1211    1
   909  1209  1212    1
   910  1213  1214    1
   911  1213  1215    1
   912  1213  1216    1
   913  1217  1218    1
   914  1217  1219    1
   915  1217  1220    1
   916  1221  1222    1
   917  1221  1223    1
   918  1221  1224    1
   919  1225  1226    1
   920  1225  1227    1
   921  1225  1228    1
   922  1229  1230    1
   923  1229  1231    1
   924  1229  1232    1
   925  1233  1234    1
   926  1233  1235    1
   927  1233  1236    1
   928  1237  1238    1
   929  1237  1239    1
   930  1237  1240    1
   931  1241  1242    1
   932  1241  1243    1
   933  1241  1244    1
   934  1245  1246    1
   935  1245  1247    1
   936  1245  1248    1
   937  1249  1250    1
   938  1249  1251    1
   939  1249  1252    1
   940  1253  1254    1
   941  1253  1255    1
   942  1253  1256    1
   943  1257  1258    1
   944  1257  1259    1
   945  1257  1260    1
   946  1261  1262    1
   947  1261  1263    1
   948  1261  1264    1
   949  1265  1266    1
   950  1265  1267    1
   951  1265  1268    1
   952  1269  1270    1
   953  1269  1271    1
   954  1269  1272    1
   955  1273  1274    1
   956  1273  1275    1
   957  1273  1276    1
   958  1277  1278    1
   959  1277  1279    1
   960  1277  1280    1
   961  1281  1282    1
   962  1281  1283    1
   963  1281  1284    1
   964  1285  1286    1
   965  1285  1287    1
   966  1285  1288    1
   967  1289  1290    1
   968  1289  1291    1
   969  1289  1292    1
   970  1293  1294    1
   971  1293  1295    1
   972  1293  1296    1
   973  1297  1298    1
   974  1297  1299    1
   975  1297  1300    1
   976  1301  1302    1
   977  1301  1303    1
   978  1301  1304    1
   979  1305  1306    1
   980  1305  1307    1
   981  1305  1308    1
   982  1309  1310    1
   983  1309  1311    1
   984  1309  1312    1
   985  1313  1314    1
   986  1313  1315    1
   987  1313  1316    1
   988  1317  1318    1
   989  1317  1319    1
   990  1317  1320    1
   991  1321  1322    1
   992  1321  1323    1
   993  1321  1324    1
   994  1325  1326    1
   995  1325  1327    1
   996  1325  1328    1
   997  1329  1330    1
   998  1329  1331    1
   999  1329  1332    1
  1000  1333  1334    1
  1001  1333  1335    1
  1002  1333  1336    1
  1003  1337  1338    1
  1004  1337  1339    1
  1005  1337  1340    1
  1006  1341  1342    1
  1007  1341  1343    1
  1008  1341  1344    1
  1009  1345  1346    1
  1010  1345  1347    1
  1011  1345  1348    1
  1012  1349  1350    1
  1013  1349  1351    1
  1014  1349  1352    1
  1015  1353  1354    1
  1016  1353  1355    1
  1017  1353  1356    1
  1018  1357  1358    1
  1019  1357  1359    1
  1020  1357  1360    1
  1021  1361  1362    1
  1022  1361  1363    1
  1023  1361  1364    1
  1024  1365  1366    1
  1025  1365  1367    1
  1026  1365  1368    1
  1027  1369  1370    1
  1028  1369  1371    1
  1029  1369  1372    1
  1030  1373  1374    1
  1031  1373  1375    1
  1032  1373  1376    1
  1033  1377  1378    1
  1034  1377  1379    1
  1035  1377  1380    1
  1036  1381  1382    1
  1037  1381  1383    1
  1038  1381  1384    1
  1039  1385  1386    1
  1040  1385  1387    1
  1041  1385  1388    1
  1042  1389  1390    1
  1043  1389  1391    1
  1044  1389  1392    1
  1045  1393  1394    1
  1046  1393  1395    1
  1047  1393  1396    1
  1048  1397  1398    1
  1049  1397  1399    1
  1050  1397  1400    1
  1051  1401  1402    1
  1052  1401  1403    1
  1053  1401  1404    1
  1054  1405  1406    1
  1055  1405  1407    1
  1056  1405  1408    1
  1057  1409  1410    1
  1058  1409  1411    1
  1059  1409  1412    1
  1060  1413  1414    1
  1061  1413  1415    1
  1062  1413  1416    1
  1063  1417  1418    1
  1064  1417  1419    1
  1065  1417  1420    1
  1066  1421  1422    1
  1067  1421  1423    1
  1068  1421  1424    1
  1069  1425  1426    1
  1070  1425  1427    1
  1071  1425  1428    1
  1072  1429  1430    1
  1073  1429  1431    1
  1074  1429  1432    1
  1075  1433  1434    1
  1076  1433  1435    1
  1077  1433  1436    1
  1078  1437  1438    1
  1079  1437  1439    1
  1080  1437  1440    1
  1081  1441  1442    1
  1082  1441  1443    1
  1083  1441  1444    1
  1084  1445  1446    1
  1085  1445  1447    1
  1086  1445  1448    1
  1087  1449  1450    1
  1088  1449  1451    1
  1089  1449  1452    1
  1090  1453  1454    1
  1091  1453  1455    1
  1092  1453  1456    1
  1093  1457  1458    1
  1094  1457  1459    1
  1095  1457  1460    1
  1096  1461  1462    1
  1097  1461  1463    1
  1098  1461  1464    1
  1099  1465  1466    1
  1100  1465  1467    1
  1101  1465  1468    1
  1102  1469  1470    1
  1103  1469  1471    1
  1104  1469  1472    1
  1105  1473  1474    1
  1106  1473  1475    1
  1107  1473  1476    1
  1108  1477  1478    1
  1109  1477  1479    1
  1110  1477  1480    1
  1111  1481  1482    1
  1112  1481  1483    1
  1113  1481  1484    1
  1114  1485  1486    1
  1115  1485  1487    1
  1116  1485  1488    1
  1117  1489  1490    1
  1118  1489  1491    1
  1119  1489  1492    1
  1120  1493  1494    1
  1121  1493  1495    1
  1122  1493  1496    1
  1123  1497  1498    1
  1124  1497  1499    1
  1125  1497  1500    1
  1126  1501  1502    1
  1127  1501  1503    1
  1128  1501  1504    1
  1129  1505  1506    1
  1130  1505  1507    1
  1131  1505  1508    1
  1132  1509  1510    1
  1133  1509  1511    1
  1134  1509  1512    1
  1135  1513  1514    1
  1136  1513  1515    1
  1137  1513  1516    1
  1138  1517  1518    1
  1139  1517  1519    1
  1140  1517  1520    1
  1141  1521  1522    1
  1142  1521  1523    1
  1143  1521  1524    1
  1144  1525  1526    1
  1145  1525  1527    1
  1146  1525  1528    1
  1147  1529  1530    1
  1148  1529  1531    1
  1149  1529  1532    1
  1150  1533  1534    1
  1151  1533  1535    1
  1152  1533  1536    1
  1153  1537  1538    1
  1154  1537  1539    1
  1155  1537  1540    1
  1156  1541  1542    1
  1157  1541  1543    1
  1158  1541  1544    1
  1159  1545  1546    1
  1160  1545  1547    1
  1161  1545  1548    1
  1162  1549  1550    1
  1163  1549  1551    1
  1164  1549  1552    1
  1165  1553  1554    1
  1166  1553  1555    1
  1167  1553  1556    1
  1168  1557  1558    1
  1169  1557  1559    1
  1170  1557  1560    1
  1171  1561  1562    1
  1172  1561  1563    1
  1173  1561  1564    1
  1174  1565  1566    1
  1175  1565  1567    1
  1176  1565  1568    1
  1177  1569  1570    1
  1178  1569  1571    1
  1179  1569  1572    1
  1180  1573  1574    1
  1181  1573  1575    1
  1182  1573  1576    1
  1183  1577  1578    1
  1184  1577  1579    1
  1185  1577  1580    1
  1186  1581  1582    1
  1187  1581  1583    1
  1188  1581  1584    1
  1189  1585  1586    1
  1190  1585  1587    1
  1191  1585  1588    1
  1192  1589  1590    1
  1193  1589  1591    1
  1194  1589  1592    1
  1195  1593  1594    1
  1196  1593  1595    1
  1197  1593  1596    1
  1198  1597  1598    1
  1199  1597  1599    1
  1200  1597  1600    1
  1201  1601  1602    1
  1202  1601  1603    1
  1203  1601  1604    1
  1204  1605  1606    1
  1205  1605  1607    1
  1206  1605  1608    1
  1207  1609  1610    1
  1208  1609  1611    1
  1209  1609  1612    1
  1210  1613  1614    1
  1211  1613  1615    1
  1212  1613  1616    1
  1213  1617  1618    1
  1214  1617  1619    1
  1215  1617  1620    1
  1216  1621  1622    1
  1217  1621  1623    1
  1218  1621  1624    1
  1219  1625  1626    1
  1220  1625  1627    1
  1221  1625  1628    1
  1222  1629  1630    1
  1223  1629  1631    1
  1224  1629  1632    1
  1225  1633  1634    1
  1226  1633  1635    1
  1227  1633  1636    1
  1228  1637  1638    1
  1229  1637  1639    1
  1230  1637  1640    1
  1231  1641  1642    1
  1232  1641  1643    1
  1233  1641  1644    1
  1234  1645  1646    1
  1235  1645  1647    1
  1236  1645  1648    1
  1237  1649  1650    1
  1238  1649  1651    1
  1239  1649  1652    1
  1240  1653  1654    1
  1241  1653  1655    1
  1242  1653  1656    1
  1243  1657  1658    1
  1244  1657  1659    1
  1245  1657  1660    1
  1246  1661  1662    1
  1247  1661  1663    1
  1248  1661  1664    1
  1249  1665  1666    1
  1250  1665  1667    1
  1251  1665  1668    1
  1252  1669  1670    1
  1253  1669  1671    1
  1254  1669  1672    1
  1255  1673  1674    1
  1256  1673  1675    1
  1257  1673  1676    1
  1258  1677  1678    1
  1259  1677  1679    1
  1260  1677  1680    1
  1261  1681  1682    1
  1262  1681  1683    1
  1263  1681  1684    1
  1264  1685  1686    1
  1265  1685  1687    1
  1266  1685  1688    1
  1267  1689  1690    1
  1268  1689  1691    1
  1269  1689  1692    1
  1270  1693  1694    1
  1271  1693  1695    1
  1272  1693  1696    1
  1273  1697  1698    1
  1274  1697  1699    1
  1275  1697  1700    1
  1276  1701  1702    1
  1277  1701  1703    1
  1278  1701  1704    1
  1279  1705  1706    1
  1280  1705  1707    1
  1281  1705  1708    1
  1282  1709  1710    1
  1283  1709  1711    1
  1284  1709  1712    1
  1285  1713  1714    1
  1286  1713  1715    1
  1287  1713  1716    1
  1288  1717  1718    1
  1289  1717  1719    1
  1290  1717  1720    1
  1291  1721  1722    1
  1292  1721  1723    1
  1293  1721  1724    1
  1294  1725  1726    1
  1295  1725  1727    1
  1296  1725  1728    1
  1297  1729  1730    1
  1298  1729  1731    1
  1299  1729  1732    1
  1300  1733  1734    1
  1301  1733  1735    1
  1302  1733  1736    1
  1303  1737  1738    1
  1304  1737  1739    1
  1305  1737  1740    1
  1306  1741  1742    1
  1307  1741  1743    1
  1308  1741  1744    1
  1309  1745  1746    1
  1310  1745  1747    1
  1311  1745  1748    1
  1312  1749  1750    1
  1313  1749  1751    1
  1314  1749  1752    1
  1315  1753  1754    1
  1316  1753  1755    1
  1317  1753  1756    1
  1318  1757  1758    1
  1319  1757  1759    1
  1320  1757  1760    1
  1321  1761  1762    1
  1322  1761  1763    1
  1323  1761  1764    1
  1324  1765  1766    1
  1325  1765  1767    1
  1326  1765  1768    1
  1327  1769  1770    1
  1328  1769  1771    1
  1329  1769  1772    1
  1330  1773  1774    1
  1331  1773  1775    1
  1332  1773  1776    1
  1333  1777  1778    1
  1334  1777  1779    1
  1335  1777  1780    1
  1336  1781  1782    1
  1337  1781  1783    1
  1338  1781  1784    1
  1339  1785  1786    1
  1340  1785  1787    1
  1341  1785  1788    1
  1342  1789  1790    1
  1343  1789  1791    1
  1344  1789  1792    1
  1345  1793  1794    1
  1346  1793  1795    1
  1347  1793  1796    1
  1348  1797  1798    1
  1349  1797  1799    1
  1350  1797  1800    1
  1351  1801  1802    1
  1352  1801  1803    1
  1353  1801  1804    1
  1354  1805  1806    1
  1355  1805  1807    1
  1356  1805  1808    1
  1357  1809  1810    1
  1358  1809  1811    1
  1359  1809  1812    1
  1360  1813  1814    1
  1361  1813  1815    1
  1362  1813  1816    1
  1363  1817  1818    1
  1364  1817  1819    1
  1365  1817  1820    1
  1366  1821  1822    1
  1367  1821  1823    1
  1368  1821  1824    1
  1369  1825  1826    1
  1370  1825  1827    1
  1371  1825  1828    1
  1372  1829  1830    1
  1373  1829  1831    1
  1374  1829  1832    1
  1375  1833  1834    1
  1376  1833  1835    1
  1377  1833  1836    1
  1378  1837  1838    1
  1379  1837  1839    1
  1380  1837  1840    1
  1381  1841  1842    1
  1382  1841  1843    1
  1383  1841  1844    1
  1384  1845  1846    1
  1385  1845  1847    1
  1386  1845  1848    1
  1387  1849  1850    1
  1388  1849  1851    1
  1389  1849  1852    1
  1390  1853  1854    1
  1391  1853  1855    1
  1392  1853  1856    1
  1393  1857  1858    1
  1394  1857  1859    1
  1395  1857  1860    1
  1396  1861  1862    1
  1397  1861  1863    1
  1398  1861  1864    1
  1399  1865  1866    1
  1400  1865  1867    1
  1401  1865  1868    1
  1402  1869  1870    1
  1403  1869  1871    1
  1404  1869  1872    1
  1405  1873  1874    1
  1406  1873  1875    1
  1407  1873  1876    1
  1408  1877  1878    1
  1409  1877  1879    1
  1410  1877  1880    1
  1411  1881  1882    1
  1412  1881  1883    1
  1413  1881  1884    1
  1414  1885  1886    1
  1415  1885  1887    1
  1416  1885  1888    1
  1417  1889  1890    1
  1418  1889  1891    1
  1419  1889  1892    1
  1420  1893  1894    1
  1421  1893  1895    1
  1422  1893  1896    1
  1423  1897  1898    1
  1424  1897  1899    1
  1425  1897  1900    1
  1426  1901  1902    1
  1427  1901  1903    1
  1428  1901  1904    1
  1429  1905  1906    1
  1430  1905  1907    1
  1431  1905  1908    1
  1432  1909  1910    1
  1433  1909  1911    1
  1434  1909  1912    1
  1435  1913  1914    1
  1436  1913  1915    1
  1437  1913  1916    1
  1438  1917  1918    1
  1439  1917  1919    1
  1440  1917  1920    1
  1441  1921  1922    1
  1442  1921  1923    1
  1443  1921  1924    1
  1444  1925  1926    1
  1445  1925  1927    1
  1446  1925  1928    1
  1447  1929  1930    1
  1448  1929  1931    1
  1449  1929  1932    1
  1450  1933  1934    1
  1451  1933  1935    1
  1452  1933  1936    1
  1453  1937  1938    1
  1454  1937  1939    1
  1455  1937  1940    1
  1456  1941  1942    1
  1457  1941  1943    1
  1458  1941  1944    1
  1459  1945  1946    1
  1460  1945  1947    1
  1461  1945  1948    1
  1462  1949  1950    1
  1463  1949  1951    1
  1464  1949  1952    1
  1465  1953  1954    1
  1466  1953  1955    1
  1467  1953  1956    1
  1468  1957  1958    1
  1469  1957  1959    1
  1470  1957  1960    1
  1471  1961  1962    1
  1472  1961  1963    1
  1473  1961  1964    1
  1474  1965  1966    1
  1475  1965  1967    1
  1476  1965  1968    1
  1477  1969  1970    1
  1478  1969  1971    1
  1479  1969  1972    1
  1480  1973  1974    1
  1481  1973  1975    1
  1482  1973  1976    1
  1483  1977  1978    1
  1484  1977  1979    1
  1485  1977  1980    1
  1486  1981  1982    1
  1487  1981  1983    1
  1488  1981  1984    1
  1489  1985  1986    1
  1490  1985  1987    1
  1491  1985  1988    1
  1492  1989  1990    1
  1493  1989  1991    1
  1494  1989  1992    1
  1495  1993  1994    1
  1496  1993  1995    1
  1497  1993  1996    1
  1498  1997  1998    1
  1499  1997  1999    1
  1500  1997  2000    1
  1501  2001  2002    1
  1502  2001  2003    1
  1503  2001  2004    1
  1504  2005  2006    1
  1505  2005  2007    1
  1506  2005  2008    1
  1507  2009  2010    1
  1508  2009  2011    1
  1509  2009  2012    1
  1510  2013  2014    1
  1511  2013  2015    1
  1512  2013  2016    1
  1513  2017  2018    1
  1514  2017  2019    1
  1515  2017  2020    1
  1516  2021  2022    1
  1517  2021  2023    1
  1518  2021  2024    1
  1519  2025  2026    1
  1520  2025  2027    1
  1521  2025  2028    1
  1522  2029  2030    1
  1523  2029  2031    1
  1524  2029  2032    1
  1525  2033  2034    1
  1526  2033  2035    1
  1527  2033  2036    1
  1528  2037  2038    1
  1529  2037  2039    1
  1530  2037  2040    1
  1531  2041  2042    1
  1532  2041  2043    1
  1533  2041  2044    1
  1534  2045  2046    1
  1535  2045  2047    1
  1536  2045  2048    1
  1537  2049  2050    1
  1538  2049  2051    1
  1539  2049  2052    1
  1540  2053  2054    1
  1541  2053  2055    1
  1542  2053  2056    1
  1543  2057  2058    1
  1544  2057  2059    1
  1545  2057  2060    1
  1546  2061  2062    1
  1547  2061  2063    1
  1548  2061  2064    1
  1549  2065  2066    1
  1550  2065  2067    1
  1551  2065  2068    1
  1552  2069  2070    1
  1553  2069  2071    1
  1554  2069  2072    1
  1555  2073  2074    1
  1556  2073  2075    1
  1557  2073  2076    1
  1558  2077  2078    1
  1559  2077  2079    1
  1560  2077  2080    1
  1561  2081  2082    1
  1562  2081  2083    1
  1563  2081  2084    1
  1564  2085  2086    1
  1565  2085  2087    1
  1566  2085  2088    1
  1567  2089  2090    1
  1568  2089  2091    1
  1569  2089  2092    1
  1570  2093  2094    1
  1571  2093  2095    1
  1572  2093  2096    1
  1573  2097  2098    1
  1574  2097  2099    1
  1575  2097  2100    1
  1576  2101  2102    1
  1577  2101  2103    1
  1578  2101  2104    1
  1579  2105  2106    1
  1580  2105  2107    1
  1581  2105  2108    1
  1582  2109  2110    1
  1583  2109  2111    1
  1584  2109  2112    1
  1585  2113  2114    1
  1586  2113  2115    1
  1587  2113  2116    1
  1588  2117  2118    1
  1589  2117  2119    1
  1590  2117  2120    1
  1591  2121  2122    1
  1592  2121  2123    1
  1593  2121  2124    1
  1594  2125  2126    1
  1595  2125  2127    1
  1596  2125  2128    1
  1597  2129  2130    1
  1598  2129  2131    1
  1599  2129  2132    1
  1600  2133  2134    1
  1601  2133  2135    1
  1602  2133  2136    1
  1603  2137  2138    1
  1604  2137  2139    1
  1605  2137  2140    1
  1606  2141  2142    1
  1607  2141  2143    1
  1608  2141  2144    1
  1609  2145  2146    1
  1610  2145  2147    1
  1611  2145  2148    1
  1612  2149  2150    1
  1613  2149  2151    1
  1614  2149  2152    1
  1615  2153  2154    1
  1616  2153  2155    1
  1617  2153  2156    1
  1618  2157  2158    1
  1619  2157  2159    1
  1620  2157  2160    1
  1621  2161  2162    1
  1622  2161  2163    1
  1623  2161  2164    1
  1624  2165  2166    1
  1625  2165  2167    1
  1626  2165  2168    1
  1627  2169  2170    1
  1628  2169  2171    1
  1629  2169  2172    1
  1630  2173  2174    1
  1631  2173  2175    1
  1632  2173  2176    1
  1633  2177  2178    1
  1634  2177  2179    1
  1635  2177  2180    1
  1636  2181  2182    1
  1637  2181  2183    1
  1638  2181  2184    1
  1639  2185  2186    1
  1640  2185  2187    1
  1641  2185  2188    1
  1642  2189  2190    1
  1643  2189  2191    1
  1644  2189  2192    1
  1645  2193  2194    1
  1646  2193  2195    1
  1647  2193  2196    1
  1648  2197  2198    1
  1649  2197  2199    1
  1650  2197  2200    1
  1651  2201  2202    1
  1652  2201  2203    1
  1653  2201  2204    1
  1654  2205  2206    1
  1655  2205  2207    1
  1656  2205  2208    1
  1657  2209  2210    1
  1658  2209  2211    1
  1659  2209  2212    1
  1660  2213  2214    1
  1661  2213  2215    1
  1662  2213  2216    1
  1663  2217  2218    1
  1664  2217  2219    1
  1665  2217  2220    1
  1666  2221  2222    1
  1667  2221  2223    1
  1668  2221  2224    1
  1669  2225  2226    1
  1670  2225  2227    1
  1671  2225  2228    1
  1672  2229  2230    1
  1673  2229  2231    1
  1674  2229  2232    1
  1675  2233  2234    1
  1676  2233  2235    1
  1677  2233  2236    1
  1678  2237  2238    1
  1679  2237  2239    1
  1680  2237  2240    1
  1681  2241  2242    1
  1682  2241  2243    1
  1683  2241  2244    1
  1684  2245  2246    1
  1685  2245  2247    1
  1686  2245  2248    1
  1687  2249  2250    1
  1688  2249  2251    1
  1689  2249  2252    1
  1690  2253  2254    1
  1691  2253  2255    1
  1692  2253  2256    1
  1693  2257  2258    1
  1694  2257  2259    1
  1695  2257  2260    1
  1696  2261  2262    1
  1697  2261  2263    1
  1698  2261  2264    1
  1699  2265  2266    1
  1700  2265  2267    1
  1701  2265  2268    1
  1702  2269  2270    1
  1703  2269  2271    1
  1704  2269  2272    1
  1705  2273  2274    1
  1706  2273  2275    1
  1707  2273  2276    1
  1708  2277  2278    1
  1709  2277  2279    1
  1710  2277  2280    1
  1711  2281  2282    1
  1712  2281  2283    1
  1713  2281  2284    1
  1714  2285  2286    1
  1715  2285  2287    1
  1716  2285  2288    1
  1717  2289  2290    1
  1718  2289  2291    1
  1719  2289  2292    1
  1720  2293  2294    1
  1721  2293  2295    1
  1722  2293  2296    1
  1723  2297  2298    1
  1724  2297  2299    1
  1725  2297  2300    1
  1726  2301  2302    1
  1727  2301  2303    1
  1728  2301  2304    1
  1729  2305  2306    1
  1730  2305  2307    1
  1731  2305  2308    1
  1732  2309  2310    1
  1733  2309  2311    1
  1734  2309  2312    1
  1735  2313  2314    1
  1736  2313  2315    1
  1737  2313  2316    1
  1738  2317  2318    1
  1739  2317  2319    1
  1740  2317  2320    1
  1741  2321  2322    1
  1742  2321  2323    1
  1743  2321  2324    1
  1744  2325  2326    1
  1745  2325  2327    1
  1746  2325  2328    1
  1747  2329  2330    1
  1748  2329  2331    1
  1749  2329  2332    1
  1750  2333  2334    1
  1751  2333  2335    1
  1752  2333  2336    1
  1753  2337  2338    1
  1754  2337  2339    1
  1755  2337  2340    1
  1756  2341  2342    1
  1757  2341  2343    1
  1758  2341  2344    1
  1759  2345  2346    1
  1760  2345  2347    1
  1761  2345  2348    1
  1762  2349  2350    1
  1763  2349  2351    1
  1764  2349  2352    1
  1765  2353  2354    1
  1766  2353  2355    1
  1767  2353  2356    1
  1768  2357  2358    1
  1769  2357  2359    1
  1770  2357  2360    1
  1771  2361  2362    1
  1772  2361  2363    1
  1773  2361  2364    1
  1774  2365  2366    1
  1775  2365  2367    1
  1776  2365  2368    1
  1777  2369  2370    1
  1778  2369  2371    1
  1779  2369  2372    1
  1780  2373  2374    1
  1781  2373  2375    1
  1782  2373  2376    1
  1783  2377  2378    1
  1784  2377  2379    1
  1785  2377  2380    1
  1786  2381  2382    1
  1787  2381  2383    1
  1788  2381  2384    1
  1789  2385  2386    1
  1790  2385  2387    1
  1791  2385  2388    1
  1792  2389  2390    1
  1793  2389  2391    1
  1794  2389  2392    1
  1795  2393  2394    1
  1796  2393  2395    1
  1797  2393  2396    1
  1798  2397  2398    1
  1799  2397  2399    1
  1800  2397  2400    1
  1801  2401  2402    1
  1802  2401  2403    1
  1803  2401  2404    1
  1804  2405  2406    1
  1805  2405  2407    1
  1806  2405  2408    1
  1807  2409  2410    1
  1808  2409  2411    1
  1809  2409  2412    1
  1810  2413  2414    1
  1811  2413  2415    1
  1812  2413  2416    1
  1813  2417  2418    1
  1814  2417  2419    1
  1815  2417  2420    1
  1816  2421  2422    1
  1817  2421  2423    1
  1818  2421  2424    1
  1819  2425  2426    1
  1820  2425  2427    1
  1821  2425  2428    1
  1822  2429  2430    1
  1823  2429  2431    1
  1824  2429  2432    1
  1825  2433  2434    1
  1826  2433  2435    1
  1827  2433  2436    1
  1828  2437  2438    1
  1829  2437  2439    1
  1830  2437  2440    1
  1831  2441  2442    1
  1832  2441  2443    1
  1833  2441  2444    1
  1834  2445  2446    1
  1835  2445  2447    1
  1836  2445  2448    1
  1837  2449  2450    1
  1838  2449  2451    1
  1839  2449  2452    1
  1840  2453  2454    1
  1841  2453  2455    1
  1842  2453  2456    1
  1843  2457  2458    1
  1844  2457  2459    1
  1845  2457  2460    1
  1846  2461  2462    1
  1847  2461  2463    1
  1848  2461  2464    1
  1849  2465  2466    1
  1850  2465  2467    1
  1851  2465  2468    1
  1852  2469  2470    1
  1853  2469  2471    1
  1854  2469  2472    1
  1855  2473  2474    1
  1856  2473  2475    1
  1857  2473  2476    1
  1858  2477  2478    1
  1859  2477  2479    1
  1860  2477  2480    1
  1861  2481  2482    1
  1862  2481  2483    1
  1863  2481  2484    1
  1864  2485  2486    1
  1865  2485  2487    1
  1866  2485  2488    1
  1867  2489  2490    1
  1868  2489  2491    1
  1869  2489  2492    1
  1870  2493  2494    1
  1871  2493  2495    1
  1872  2493  2496    1
  1873  2497  2498    1
  1874  2497  2499    1
  1875  2497  2500    1
  1876  2501  2502    1
  1877  2501  2503    1
  1878  2501  2504    1
  1879  2505  2506    1
  1880  2505  2507    1
  1881  2505  2508    1
  1882  2509  2510    1
  1883  2509  2511    1
  1884  2509  2512    1
  1885  2513  2514    1
  1886  2513  2515    1
  1887  2513  2516    1
  1888  2517  2518    1
  1889  2517  2519    1
  1890  2517  2520    1
  1891  2521  2522    1
  1892  2521  2523    1
  1893  2521  2524    1
  1894  2525  2526    1
  1895  2525  2527    1
  1896  2525  2528    1
  1897  2529  2530    1
  1898  2529  2531    1
  1899  2529  2532    1
  1900  2533  2534    1
  1901  2533  2535    1
  1902  2533  2536    1
  1903  2537  2538    1
  1904  2537  2539    1
  1905  2537  2540    1
  1906  2541  2542    1
  1907  2541  2543    1
  1908  2541  2544    1
  1909  2545  2546    1
  1910  2545  2547    1
  1911  2545  2548    1
  1912  2549  2550    1
  1913  2549  2551    1
  1914  2549  2552    1
  1915  2553  2554    1
  1916  2553  2555    1
  1917  2553  2556    1
  1918  2557  2558    1
  1919  2557  2559    1
  1920  2557  2560    1
  1921  2561  2562    1
  1922  2561  2563    1
  1923  2561  2564    1
  1924  2565  2566    1
  1925  2565  2567    1
  1926  2565  2568    1
