@<TRIPOS>MOLECULE
*****
 2324 1743 0 0 0
SMALL
GASTEIGER

@<TRIPOS>ATOM
      1 N          -0.2542   -1.4273    9.5363 N.3     1  UNL1       -0.3437
      2 H           0.4379   -1.8391   10.1607 H       1  UNL1        0.1146
      3 H           0.0893   -0.4945    9.3123 H       1  UNL1        0.1146
      4 H          -0.2033   -1.9609    8.6696 H       1  UNL1        0.1146
      5 N          -0.3963    0.7419   -0.0893 N.3     2  UNL2       -0.3437
      6 H          -0.1264    0.1300   -0.8582 H       2  UNL2        0.1146
      7 H           0.3305    1.4535   -0.0283 H       2  UNL2        0.1146
      8 H          -1.2381    1.2261   -0.3978 H       2  UNL2        0.1146
      9 N          -0.2462    1.3481    1.9834 N.3     3  UNL3       -0.3437
     10 H          -1.0957    1.9060    2.0563 H       3  UNL3        0.1146
     11 H           0.2140    1.4173    2.8900 H       3  UNL3        0.1146
     12 H          -0.5524    0.3800    1.8972 H       3  UNL3        0.1146
     13 N          -0.3507   -1.3379    4.1745 N.3     4  UNL4       -0.3437
     14 H          -0.8513   -0.7740    3.4891 H       4  UNL4        0.1146
     15 H           0.3120   -1.9018    3.6441 H       4  UNL4        0.1146
     16 H           0.2098   -0.6848    4.7200 H       4  UNL4        0.1146
     17 N          -0.0911    0.3978    5.7690 N.3     5  UNL5       -0.3437
     18 H           0.4041   -0.1008    6.5070 H       5  UNL5        0.1146
     19 H          -0.6188    1.1354    6.2335 H       5  UNL5        0.1146
     20 H           0.6255    0.8691    5.2188 H       5  UNL5        0.1146
     21 N          -0.5151    3.1397   -0.0625 N.3     6  UNL6       -0.3437
     22 H           0.1599    2.6499    0.5230 H       6  UNL6        0.1146
     23 H           0.0187    3.8284   -0.5907 H       6  UNL6        0.1146
     24 H          -0.8439    2.4567   -0.7435 H       6  UNL6        0.1146
     25 N          -0.3954    3.2350    2.3951 N.3     7  UNL7       -0.3437
     26 H          -0.6106    2.8956    1.4587 H       7  UNL7        0.1146
     27 H           0.4426    2.7353    2.6893 H       7  UNL7        0.1146
     28 H          -0.1170    4.2089    2.2838 H       7  UNL7        0.1146
     29 N          -0.5866    1.2752    4.2510 N.3     8  UNL8       -0.3437
     30 H          -1.0706    1.6447    3.4339 H       8  UNL8        0.1146
     31 H          -0.2915    0.3326    4.0003 H       8  UNL8        0.1146
     32 H           0.2683    1.8222    4.3423 H       8  UNL8        0.1146
     33 N          -0.6522    2.6512    5.9792 N.3     9  UNL9       -0.3437
     34 H          -0.6475    2.4417    6.9764 H       9  UNL9        0.1146
     35 H          -0.6198    3.6670    5.9054 H       9  UNL9        0.1146
     36 H           0.2391    2.3149    5.6173 H       9  UNL9        0.1146
     37 N          -0.3395    5.1227    0.8850 N.3    10  UNL10      -0.3437
     38 H          -0.8829    5.2602    0.0340 H      10  UNL10       0.1146
     39 H           0.2408    4.3019    0.7182 H      10  UNL10       0.1146
     40 H           0.3012    5.9132    0.9399 H      10  UNL10       0.1146
     41 N          -0.1142    3.6816    4.2783 N.3    11  UNL11      -0.3437
     42 H          -0.7850    3.0069    3.9134 H      11  UNL11       0.1146
     43 H           0.7948    3.2225    4.2405 H      11  UNL11       0.1146
     44 H          -0.0759    4.4370    3.5955 H      11  UNL11       0.1146
     45 N          -0.6219    5.1570    6.3325 N.3    12  UNL12      -0.3437
     46 H          -1.2865    5.7957    5.8980 H      12  UNL12       0.1146
     47 H           0.2259    5.6996    6.4920 H      12  UNL12       0.1146
     48 H          -0.9979    4.9458    7.2558 H      12  UNL12       0.1146
     49 N          -0.7086    3.7419    8.3017 N.3    13  UNL13      -0.3437
     50 H          -0.1420    3.7451    7.4547 H      13  UNL13       0.1146
     51 H          -0.3334    2.9974    8.8877 H      13  UNL13       0.1146
     52 H          -0.4963    4.6136    8.7849 H      13  UNL13       0.1146
     53 N          -0.4309    7.0293   -0.0166 N.3    14  UNL14      -0.3437
     54 H          -0.7311    7.3774   -0.9260 H      14  UNL14       0.1146
     55 H           0.5814    6.9278   -0.0748 H      14  UNL14       0.1146
     56 H          -0.5997    7.7868    0.6437 H      14  UNL14       0.1146
     57 N          -0.3788    7.6134    2.2487 N.3    15  UNL15      -0.3437
     58 H           0.4431    7.8909    1.7140 H      15  UNL15       0.1146
     59 H          -1.1419    8.2012    1.9161 H      15  UNL15       0.1146
     60 H          -0.6027    6.6658    1.9482 H      15  UNL15       0.1146
     61 N           0.0185    6.0680    4.2903 N.3    16  UNL16      -0.3437
     62 H           0.3178    5.2271    4.7818 H      16  UNL16       0.1146
     63 H          -0.1018    5.7958    3.3157 H      16  UNL16       0.1146
     64 H          -0.9148    6.2804    4.6398 H      16  UNL16       0.1146
     65 N          -0.4013    7.1652    5.9085 N.3    17  UNL17      -0.3437
     66 H          -0.9945    7.1919    6.7367 H      17  UNL17       0.1146
     67 H          -0.3068    8.1316    5.5995 H      17  UNL17       0.1146
     68 H           0.5222    6.8826    6.2335 H      17  UNL17       0.1146
     69 N          -0.5270    9.2884    0.1282 N.3    18  UNL18      -0.3437
     70 H          -0.7681    8.6665   -0.6421 H      18  UNL18       0.1146
     71 H           0.2236    8.8253    0.6387 H      18  UNL18       0.1146
     72 H          -0.1089   10.1143   -0.2978 H      18  UNL18       0.1146
     73 N          -0.4444    9.3367    2.7379 N.3    19  UNL19      -0.3437
     74 H          -1.1237   10.0764    2.9103 H      19  UNL19       0.1146
     75 H          -0.2931    9.3236    1.7303 H      19  UNL19       0.1146
     76 H           0.4309    9.6579    3.1491 H      19  UNL19       0.1146
     77 N          -0.6619    9.5550    6.7038 N.3    20  UNL20      -0.3437
     78 H           0.1150    9.2040    7.2621 H      20  UNL20       0.1146
     79 H          -0.8203   10.5127    7.0137 H      20  UNL20       0.1146
     80 H          -0.3132    9.6230    5.7487 H      20  UNL20       0.1146
     81 N          -0.4633    7.6261    8.4690 N.3    21  UNL21      -0.3437
     82 H          -0.1839    8.3711    9.1056 H      21  UNL21       0.1146
     83 H          -0.0532    7.8597    7.5659 H      21  UNL21       0.1146
     84 H           0.0200    6.7877    8.7884 H      21  UNL21       0.1146
     85 N          -0.7149   12.0336   -0.3873 N.3    22  UNL22      -0.3437
     86 H          -0.5479   11.2445    0.2355 H      22  UNL22       0.1146
     87 H          -1.1229   12.7665    0.1913 H      22  UNL22       0.1146
     88 H           0.2053   12.3733   -0.6632 H      22  UNL22       0.1146
     89 N          -0.5145   11.2910    1.7676 N.3    23  UNL23      -0.3437
     90 H          -0.9826   11.9538    2.3840 H      23  UNL23       0.1146
     91 H           0.2460   10.8886    2.3135 H      23  UNL23       0.1146
     92 H          -1.1792   10.5345    1.6119 H      23  UNL23       0.1146
     93 N          -0.5181   11.9946    3.7591 N.3    24  UNL24      -0.3437
     94 H          -1.0777   12.1291    4.6000 H      24  UNL24       0.1146
     95 H           0.2176   12.6987    3.7958 H      24  UNL24       0.1146
     96 H          -0.0522   11.0955    3.8727 H      24  UNL24       0.1146
     97 N          -0.3994   11.9988    6.2254 N.3    25  UNL25      -0.3437
     98 H           0.0950   11.6243    7.0339 H      25  UNL25       0.1146
     99 H           0.0303   12.9012    6.0266 H      25  UNL25       0.1146
    100 H          -0.1564   11.3936    5.4424 H      25  UNL25       0.1146
    101 N          -0.7018   14.0828    0.0334 N.3    26  UNL26      -0.3437
    102 H          -0.0595   14.4885    0.7126 H      26  UNL26       0.1146
    103 H          -1.0386   14.8597   -0.5335 H      26  UNL26       0.1146
    104 H          -0.1304   13.5101   -0.5862 H      26  UNL26       0.1146
    105 N          -0.1087   13.6478    1.9378 N.3    27  UNL27      -0.3437
    106 H          -0.7489   14.3666    2.2721 H      27  UNL27       0.1146
    107 H           0.3714   13.2930    2.7637 H      27  UNL27       0.1146
    108 H          -0.6941   12.8837    1.6034 H      27  UNL27       0.1146
    109 N          -0.3063   13.9510    4.7311 N.3    28  UNL28      -0.3437
    110 H          -0.9781   13.3403    5.1938 H      28  UNL28       0.1146
    111 H           0.6067   13.5198    4.8690 H      28  UNL28       0.1146
    112 H          -0.5026   13.8800    3.7337 H      28  UNL28       0.1146
    113 N          -0.6498   14.2325    6.5298 N.3    29  UNL29      -0.3437
    114 H          -1.2000   14.9396    7.0154 H      29  UNL29       0.1146
    115 H           0.0045   14.7429    5.9384 H      29  UNL29       0.1146
    116 H          -0.0850   13.7762    7.2447 H      29  UNL29       0.1146
    117 N          -0.2523   12.3807    8.4965 N.3    30  UNL30      -0.3437
    118 H          -0.9841   12.6400    7.8365 H      30  UNL30       0.1146
    119 H           0.5820   12.8875    8.2042 H      30  UNL30       0.1146
    120 H          -0.5260   12.7830    9.3918 H      30  UNL30       0.1146
    121 N          -0.4815   16.8306   -0.0072 N.3    31  UNL31      -0.3437
    122 H           0.4181   17.3076    0.0332 H      31  UNL31       0.1146
    123 H          -0.8431   16.9919   -0.9461 H      31  UNL31       0.1146
    124 H          -0.2738   15.8344    0.0465 H      31  UNL31       0.1146
    125 N          -0.5643   16.2192    1.9983 N.3    32  UNL32      -0.3437
    126 H           0.3061   16.3124    1.4768 H      32  UNL32       0.1146
    127 H          -1.1323   17.0260    1.7435 H      32  UNL32       0.1146
    128 H          -1.0398   15.4067    1.6084 H      32  UNL32       0.1146
    129 N          -0.3900   16.4078    4.0835 N.3    33  UNL33      -0.3437
    130 H           0.1994   16.1527    4.8746 H      33  UNL33       0.1146
    131 H           0.0340   17.2389    3.6738 H      33  UNL33       0.1146
    132 H          -0.2737   15.6651    3.3956 H      33  UNL33       0.1146
    133 N          -0.6282   16.1989    6.3676 N.3    34  UNL34      -0.3437
    134 H          -0.2677   16.9201    5.7445 H      34  UNL34       0.1146
    135 H           0.1813   15.6588    6.6700 H      34  UNL34       0.1146
    136 H          -0.9658   16.6866    7.1961 H      34  UNL34       0.1146
    137 N          -0.5607   14.7303    8.7092 N.3    35  UNL35      -0.3437
    138 H          -1.1867   14.0724    8.2469 H      35  UNL35       0.1146
    139 H          -0.0940   14.2035    9.4461 H      35  UNL35       0.1146
    140 H           0.1610   14.9582    8.0268 H      35  UNL35       0.1146
    141 N          -0.1625   18.6870   -0.1007 N.3    36  UNL36      -0.3437
    142 H          -1.0717   18.2357   -0.0114 H      36  UNL36       0.1146
    143 H          -0.3289   19.6832    0.0342 H      36  UNL36       0.1146
    144 H           0.3828   18.3819    0.7042 H      36  UNL36       0.1146
    145 N          -0.8297   18.4646    2.0721 N.3    37  UNL37      -0.3437
    146 H          -1.0444   18.8283    1.1447 H      37  UNL37       0.1146
    147 H           0.0264   17.9215    1.9695 H      37  UNL37       0.1146
    148 H          -0.5826   19.2734    2.6407 H      37  UNL37       0.1146
    149 N          -0.4525   18.6354    4.1395 N.3    38  UNL38      -0.3437
    150 H           0.2324   18.5244    3.3933 H      38  UNL38       0.1146
    151 H          -0.6526   19.6333    4.1910 H      38  UNL38       0.1146
    152 H          -1.3077   18.1946    3.8038 H      38  UNL38       0.1146
    153 N          -0.4847   18.6743    6.1700 N.3    39  UNL39      -0.3437
    154 H          -0.4350   18.8954    7.1635 H      39  UNL39       0.1146
    155 H          -0.3503   19.5569    5.6788 H      39  UNL39       0.1146
    156 H           0.3396   18.1111    5.9660 H      39  UNL39       0.1146
    157 N          -0.5021   21.2954    0.4522 N.3    40  UNL40      -0.3437
    158 H          -0.8919   20.7294   -0.3002 H      40  UNL40       0.1146
    159 H           0.1783   20.7029    0.9259 H      40  UNL40       0.1146
    160 H           0.0353   22.0332   -0.0009 H      40  UNL40       0.1146
    161 N          -0.5615   21.1497    2.4933 N.3    41  UNL41      -0.3437
    162 H          -0.5035   21.4025    3.4788 H      41  UNL41       0.1146
    163 H          -0.2989   21.9856    1.9730 H      41  UNL41       0.1146
    164 H           0.1835   20.4733    2.3325 H      41  UNL41       0.1146
    165 N          -0.2538   21.3833    6.4081 N.3    42  UNL42      -0.3437
    166 H           0.5807   21.9584    6.3019 H      42  UNL42       0.1146
    167 H          -0.5697   21.1695    5.4631 H      42  UNL42       0.1146
    168 H           0.0625   20.4998    6.8051 H      42  UNL42       0.1146
    169 N          -0.6196   24.2564   -0.1516 N.3    43  UNL43      -0.3437
    170 H          -0.6629   25.0548    0.4801 H      43  UNL43       0.1146
    171 H           0.0887   24.4866   -0.8471 H      43  UNL43       0.1146
    172 H          -0.2366   23.4864    0.3949 H      43  UNL43       0.1146
    173 N          -0.4553   24.2758    1.8065 N.3    44  UNL44      -0.3437
    174 H          -1.1312   24.7684    2.3885 H      44  UNL44       0.1146
    175 H           0.3982   24.8318    1.8354 H      44  UNL44       0.1146
    176 H          -0.2420   23.4083    2.2967 H      44  UNL44       0.1146
    177 N          -0.4448   24.1817    4.0430 N.3    45  UNL45      -0.3437
    178 H          -0.8145   24.8733    4.6936 H      45  UNL45       0.1146
    179 H           0.2056   24.6830    3.4396 H      45  UNL45       0.1146
    180 H           0.1233   23.5462    4.6015 H      45  UNL45       0.1146
    181 N          -0.5058   24.3177    6.2568 N.3    46  UNL46      -0.3437
    182 H          -0.4947   24.5122    7.2570 H      46  UNL46       0.1146
    183 H           0.0896   25.0241    5.8267 H      46  UNL46       0.1146
    184 H          -0.0194   23.4302    6.1378 H      46  UNL46       0.1146
    185 N          -0.4650   23.2707    8.5611 N.3    47  UNL47      -0.3437
    186 H          -0.0312   24.1927    8.5747 H      47  UNL47       0.1146
    187 H          -0.1357   22.8180    7.7096 H      47  UNL47       0.1146
    188 H          -0.0485   22.7529    9.3335 H      47  UNL47       0.1146
    189 N           2.1790   -1.3101    9.3260 N.3    48  UNL48      -0.3437
    190 H           2.5370   -1.7582   10.1683 H      48  UNL48       0.1146
    191 H           1.3414   -0.8046    9.6111 H      48  UNL48       0.1146
    192 H           2.8638   -0.5990    9.0735 H      48  UNL48       0.1146
    193 N           1.7559    0.4358   -0.1854 N.3    49  UNL49      -0.3437
    194 H           0.9007    0.0621    0.2236 H      49  UNL49       0.1146
    195 H           1.4710    1.2334   -0.7521 H      49  UNL49       0.1146
    196 H           2.2935    0.8202    0.5902 H      49  UNL49       0.1146
    197 N           1.8446    0.6576    2.1895 N.3    50  UNL50      -0.3437
    198 H           1.2439    0.7498    1.3715 H      50  UNL50       0.1146
    199 H           2.7973    0.5971    1.8330 H      50  UNL50       0.1146
    200 H           1.7854    1.5471    2.6831 H      50  UNL50       0.1146
    201 N           1.5046    0.6635    3.8196 N.3    51  UNL51      -0.3437
    202 H           1.4163    0.0938    4.6598 H      51  UNL51       0.1146
    203 H           1.5967    1.6260    4.1413 H      51  UNL51       0.1146
    204 H           2.4035    0.4181    3.4070 H      51  UNL51       0.1146
    205 N           1.7753    0.7262    6.3056 N.3    52  UNL52      -0.3437
    206 H           0.9003    1.2041    6.5162 H      52  UNL52       0.1146
    207 H           2.2304    0.5651    7.2030 H      52  UNL52       0.1146
    208 H           1.5151   -0.1939    5.9534 H      52  UNL52       0.1146
    209 N          -1.0611   -0.0998    8.1770 N.3    53  UNL53      -0.3437
    210 H          -1.2903   -0.2558    9.1575 H      53  UNL53       0.1146
    211 H          -0.7152    0.8570    8.1181 H      53  UNL53       0.1146
    212 H          -0.2623   -0.6999    7.9763 H      53  UNL53       0.1146
    213 N           1.6921    2.6972    0.1854 N.3    54  UNL54      -0.3437
    214 H           1.6362    3.6263    0.6002 H      54  UNL54       0.1146
    215 H           1.3128    2.0560    0.8806 H      54  UNL54       0.1146
    216 H           1.0301    2.6952   -0.5892 H      54  UNL54       0.1146
    217 N           1.8830    3.3416    2.1510 N.3    55  UNL55      -0.3437
    218 H           2.1067    2.4251    1.7658 H      55  UNL55       0.1146
    219 H           1.0008    3.6185    1.7228 H      55  UNL55       0.1146
    220 H           1.6806    3.1896    3.1380 H      55  UNL55       0.1146
    221 N           1.6996    2.7404    6.0028 N.3    56  UNL56      -0.3437
    222 H           0.9320    3.2600    6.4259 H      56  UNL56       0.1146
    223 H           2.2751    3.4307    5.5226 H      56  UNL56       0.1146
    224 H           2.2644    2.3936    6.7769 H      56  UNL56       0.1146
    225 N           1.6371    1.2121    9.5642 N.3    57  UNL57      -0.3437
    226 H           0.6630    0.9935    9.3598 H      57  UNL57       0.1146
    227 H           1.9998    0.4163   10.0873 H      57  UNL57       0.1146
    228 H           2.1212    1.2029    8.6676 H      57  UNL57       0.1146
    229 N           1.5833    5.4015   -0.2147 N.3    58  UNL58      -0.3437
    230 H           1.6433    6.0125    0.5986 H      58  UNL58       0.1146
    231 H           2.0907    4.5533    0.0332 H      58  UNL58       0.1146
    232 H           0.6039    5.1307   -0.2908 H      58  UNL58       0.1146
    233 N           1.2668    5.6192    2.0165 N.3    59  UNL59      -0.3437
    234 H           1.5778    4.9146    1.3493 H      59  UNL59       0.1146
    235 H           0.7201    5.1206    2.7172 H      59  UNL59       0.1146
    236 H           2.1064    5.9437    2.4941 H      59  UNL59       0.1146
    237 N           1.5567    4.7459    3.8548 N.3    60  UNL60      -0.3437
    238 H           1.9092    4.4348    4.7588 H      60  UNL60       0.1146
    239 H           1.3641    5.7415    3.9559 H      60  UNL60       0.1146
    240 H           2.3411    4.6759    3.2081 H      60  UNL60       0.1146
    241 N           1.5919    5.3260    6.1109 N.3    61  UNL61      -0.3437
    242 H           1.8387    4.4493    6.5678 H      61  UNL61       0.1146
    243 H           1.6372    6.0423    6.8343 H      61  UNL61       0.1146
    244 H           2.3533    5.5304    5.4653 H      61  UNL61       0.1146
    245 N           1.2880    2.9628    8.0358 N.3    62  UNL62      -0.3437
    246 H           1.1099    3.5760    8.8300 H      62  UNL62       0.1146
    247 H           2.2694    2.6962    8.1014 H      62  UNL62       0.1146
    248 H           0.7538    2.1131    8.2116 H      62  UNL62       0.1146
    249 N           1.6983    8.0788   -0.0067 N.3    63  UNL63      -0.3437
    250 H           0.7800    8.3251   -0.3733 H      63  UNL63       0.1146
    251 H           1.5304    7.4174    0.7501 H      63  UNL63       0.1146
    252 H           2.1624    7.5500   -0.7438 H      63  UNL63       0.1146
    253 N           1.9819    8.3119    2.2685 N.3    64  UNL64      -0.3437
    254 H           1.1455    8.4726    2.8279 H      64  UNL64       0.1146
    255 H           2.7715    8.5301    2.8747 H      64  UNL64       0.1146
    256 H           2.0222    7.3067    2.1059 H      64  UNL64       0.1146
    257 N           1.4917    7.3182    4.1797 N.3    65  UNL65      -0.3437
    258 H           1.9291    8.2366    4.2401 H      65  UNL65       0.1146
    259 H           1.2809    7.1719    3.1935 H      65  UNL65       0.1146
    260 H           2.2194    6.6446    4.4143 H      65  UNL65       0.1146
    261 N           1.7526    7.8301    6.0571 N.3    66  UNL66      -0.3437
    262 H           0.8219    8.1828    6.2759 H      66  UNL66       0.1146
    263 H           2.2290    7.7209    6.9513 H      66  UNL66       0.1146
    264 H           1.6176    6.8876    5.6940 H      66  UNL66       0.1146
    265 N           1.6617    5.9411    8.4702 N.3    67  UNL67      -0.3437
    266 H           0.7881    5.7949    7.9664 H      67  UNL67       0.1146
    267 H           1.5855    5.3969    9.3283 H      67  UNL67       0.1146
    268 H           2.3858    5.4884    7.9140 H      67  UNL67       0.1146
    269 N           1.4793    9.6101    0.0796 N.3    68  UNL68      -0.3437
    270 H           1.0463    9.4097   -0.8208 H      68  UNL68       0.1146
    271 H           2.1492   10.3586   -0.0913 H      68  UNL68       0.1146
    272 H           0.7463   10.0162    0.6595 H      68  UNL68       0.1146
    273 N           1.5750    9.9744    2.0895 N.3    69  UNL69      -0.3437
    274 H           1.0243    9.1977    1.7263 H      69  UNL69       0.1146
    275 H           1.9399    9.6637    2.9888 H      69  UNL69       0.1146
    276 H           2.3820   10.0589    1.4731 H      69  UNL69       0.1146
    277 N           1.4513    9.6018    6.4215 N.3    70  UNL70      -0.3437
    278 H           1.8175   10.0244    7.2734 H      70  UNL70       0.1146
    279 H           0.8957   10.3243    5.9659 H      70  UNL70       0.1146
    280 H           2.2567    9.4441    5.8175 H      70  UNL70       0.1146
    281 N           1.4241    7.7330    8.3937 N.3    71  UNL71      -0.3437
    282 H           1.4020    8.6946    8.0573 H      71  UNL71       0.1146
    283 H           2.3986    7.4396    8.3420 H      71  UNL71       0.1146
    284 H           1.1965    7.7773    9.3860 H      71  UNL71       0.1146
    285 N           1.4776   11.9095   -0.0878 N.3    72  UNL72      -0.3437
    286 H           0.8042   12.4026    0.4968 H      72  UNL72       0.1146
    287 H           1.9985   12.6303   -0.5853 H      72  UNL72       0.1146
    288 H           2.1407   11.4754    0.5526 H      72  UNL72       0.1146
    289 N           1.4436   12.3166    2.1609 N.3    73  UNL73      -0.3437
    290 H           2.0492   12.4689    1.3557 H      73  UNL73       0.1146
    291 H           0.4975   12.2393    1.7903 H      73  UNL73       0.1146
    292 H           1.6808   11.3930    2.5201 H      73  UNL73       0.1146
    293 N           1.6070   11.8706    3.9887 N.3    74  UNL74      -0.3437
    294 H           0.9635   12.1312    4.7347 H      74  UNL74       0.1146
    295 H           2.4153   12.4830    4.0884 H      74  UNL74       0.1146
    296 H           1.9353   10.9331    4.2158 H      74  UNL74       0.1146
    297 N           1.4667   11.9169    6.1262 N.3    75  UNL75      -0.3437
    298 H           1.3935   12.3326    7.0537 H      75  UNL75       0.1146
    299 H           2.0047   12.5757    5.5649 H      75  UNL75       0.1146
    300 H           2.0562   11.0927    6.2335 H      75  UNL75       0.1146
    301 N          -0.0732   10.1470    9.9358 N.3    76  UNL76      -0.3437
    302 H          -0.5750   11.0068   10.1531 H      76  UNL76       0.1146
    303 H          -0.7083    9.3847   10.1681 H      76  UNL76       0.1146
    304 H           0.0277   10.1293    8.9219 H      76  UNL76       0.1146
    305 N           1.0827   13.8572    0.0705 N.3    77  UNL77      -0.3437
    306 H           0.9879   14.8710    0.0303 H      77  UNL77       0.1146
    307 H           1.0786   13.5363   -0.8967 H      77  UNL77       0.1146
    308 H           2.0219   13.6766    0.4222 H      77  UNL77       0.1146
    309 N           1.3385   14.3787    1.7090 N.3    78  UNL78      -0.3437
    310 H           0.9472   14.6630    2.6059 H      78  UNL78       0.1146
    311 H           1.8170   15.1987    1.3388 H      78  UNL78       0.1146
    312 H           2.0684   13.7007    1.9233 H      78  UNL78       0.1146
    313 N           1.7228   14.1214    3.8475 N.3    79  UNL79      -0.3437
    314 H           0.9160   14.7097    4.0504 H      79  UNL79       0.1146
    315 H           2.3989   14.7233    3.3795 H      79  UNL79       0.1146
    316 H           2.1334   13.8867    4.7502 H      79  UNL79       0.1146
    317 N           1.9289   14.0164    6.4901 N.3    80  UNL80      -0.3437
    318 H           1.8394   14.4487    7.4085 H      80  UNL80       0.1146
    319 H           0.9931   13.7048    6.2339 H      80  UNL80       0.1146
    320 H           2.1598   14.7712    5.8457 H      80  UNL80       0.1146
    321 N           1.6857   14.1623   10.0366 N.3    81  UNL81      -0.3437
    322 H           2.5883   13.7078   10.1679 H      81  UNL81       0.1146
    323 H           1.8916   15.1154    9.7407 H      81  UNL81       0.1146
    324 H           1.2555   13.7057    9.2336 H      81  UNL81       0.1146
    325 N           1.6941   16.5071   -0.1795 N.3    82  UNL82      -0.3437
    326 H           0.8149   16.1186   -0.5177 H      82  UNL82       0.1146
    327 H           1.4510   17.1132    0.6028 H      82  UNL82       0.1146
    328 H           2.2111   15.7256    0.2208 H      82  UNL82       0.1146
    329 N           1.7130   16.4406    2.3697 N.3    83  UNL83      -0.3437
    330 H           1.2815   17.2864    1.9998 H      83  UNL83       0.1146
    331 H           2.4289   16.7535    3.0238 H      83  UNL83       0.1146
    332 H           0.9977   15.9839    2.9336 H      83  UNL83       0.1146
    333 N           1.7611   16.1275    4.2982 N.3    84  UNL84      -0.3437
    334 H           1.1515   16.9439    4.3166 H      84  UNL84       0.1146
    335 H           2.6467   16.4291    4.7023 H      84  UNL84       0.1146
    336 H           1.3619   15.4639    4.9605 H      84  UNL84       0.1146
    337 N           1.2981   16.3649    6.2332 N.3    85  UNL85      -0.3437
    338 H           0.8320   16.9082    6.9584 H      85  UNL85       0.1146
    339 H           1.7117   17.0439    5.5957 H      85  UNL85       0.1146
    340 H           2.0793   15.8974    6.6909 H      85  UNL85       0.1146
    341 N          -0.3477   16.9519    8.8076 N.3    86  UNL86      -0.3437
    342 H           0.0364   16.5229    9.6483 H      86  UNL86       0.1146
    343 H          -1.2785   16.5542    8.6895 H      86  UNL86       0.1146
    344 H          -0.4891   17.9354    9.0336 H      86  UNL86       0.1146
    345 N           1.4892   19.2444   -0.3490 N.3    87  UNL87      -0.3437
    346 H           2.2384   19.1082    0.3281 H      87  UNL87       0.1146
    347 H           1.8874   19.8078   -1.0990 H      87  UNL87       0.1146
    348 H           1.3061   18.3273   -0.7537 H      87  UNL87       0.1146
    349 N           1.6802   19.1129    1.8653 N.3    88  UNL88      -0.3437
    350 H           2.1722   19.0449    2.7550 H      88  UNL88       0.1146
    351 H           1.8818   18.2477    1.3660 H      88  UNL88       0.1146
    352 H           0.6869   19.0822    2.0906 H      88  UNL88       0.1146
    353 N           1.6672   18.5579    4.0921 N.3    89  UNL89      -0.3437
    354 H           1.0966   18.2371    4.8731 H      89  UNL89       0.1146
    355 H           1.3076   19.4777    3.8409 H      89  UNL89       0.1146
    356 H           2.5997   18.7150    4.4716 H      89  UNL89       0.1146
    357 N           1.5663   19.0537    6.3078 N.3    90  UNL90      -0.3437
    358 H           1.9564   18.1238    6.4545 H      90  UNL90       0.1146
    359 H           1.7785   19.5837    7.1518 H      90  UNL90       0.1146
    360 H           2.1199   19.4765    5.5641 H      90  UNL90       0.1146
    361 N           1.7270   17.4664    8.1463 N.3    91  UNL91      -0.3437
    362 H           1.5723   16.4598    8.1124 H      91  UNL91       0.1146
    363 H           0.8044   17.8947    8.0846 H      91  UNL91       0.1146
    364 H           2.0674   17.6668    9.0856 H      91  UNL91       0.1146
    365 N           1.8936   21.2520    0.1688 N.3    92  UNL92      -0.3437
    366 H           1.1179   20.9106   -0.3970 H      92  UNL92       0.1146
    367 H           2.3574   20.4235    0.5387 H      92  UNL92       0.1146
    368 H           2.5523   21.6749   -0.4836 H      92  UNL92       0.1146
    369 N           1.7716   21.2897    2.6660 N.3    93  UNL93      -0.3437
    370 H           1.0805   20.9880    3.3514 H      93  UNL93       0.1146
    371 H           2.3206   20.4622    2.4376 H      93  UNL93       0.1146
    372 H           1.2484   21.5211    1.8227 H      93  UNL93       0.1146
    373 N           1.7354   21.2375    5.1440 N.3    94  UNL94      -0.3437
    374 H           0.9823   20.5659    5.0022 H      94  UNL94       0.1146
    375 H           2.5961   20.7505    4.8981 H      94  UNL94       0.1146
    376 H           1.6074   21.9571    4.4340 H      94  UNL94       0.1146
    377 N           1.4331   19.3913    9.8638 N.3    95  UNL95      -0.3437
    378 H           1.2289   18.4396   10.1654 H      95  UNL95       0.1146
    379 H           2.4240   19.5386   10.0502 H      95  UNL95       0.1146
    380 H           1.3351   19.3916    8.8495 H      95  UNL95       0.1146
    381 N           1.5166   24.2715   -0.2291 N.3    96  UNL96      -0.3437
    382 H           1.1524   24.4725    0.7011 H      96  UNL96       0.1146
    383 H           2.1076   25.0639   -0.4766 H      96  UNL96       0.1146
    384 H           2.1445   23.4765   -0.1191 H      96  UNL96       0.1146
    385 N           1.4838   23.6543    2.2436 N.3    97  UNL97      -0.3437
    386 H           1.3310   23.1865    1.3514 H      97  UNL97       0.1146
    387 H           2.2208   23.1300    2.7130 H      97  UNL97       0.1146
    388 H           1.8855   24.5635    2.0189 H      97  UNL97       0.1146
    389 N           1.6070   24.1581    4.0322 N.3    98  UNL98      -0.3437
    390 H           1.1237   24.7840    4.6748 H      98  UNL98       0.1146
    391 H           2.2107   24.7504    3.4639 H      98  UNL98       0.1146
    392 H           2.2296   23.5918    4.6067 H      98  UNL98       0.1146
    393 N           1.5136   24.3590    6.1553 N.3    99  UNL99      -0.3437
    394 H           1.6410   24.5591    7.1463 H      99  UNL99       0.1146
    395 H           2.1708   24.9604    5.6605 H      99  UNL99       0.1146
    396 H           1.8457   23.4058    6.0162 H      99  UNL99       0.1146
    397 N           1.3529   23.1505    8.5918 N.3   100  UNL100     -0.3437
    398 H           1.3845   23.1224    7.5737 H     100  UNL100      0.1146
    399 H           2.1733   22.6381    8.9125 H     100  UNL100      0.1146
    400 H           1.5104   24.1233    8.8509 H     100  UNL100      0.1146
    401 N           3.5532   -1.2414    0.0481 N.3   101  UNL101     -0.3437
    402 H           4.0855   -1.7337   -0.6679 H     101  UNL101      0.1146
    403 H           2.9708   -0.5683   -0.4480 H     101  UNL101      0.1146
    404 H           2.9131   -1.9283    0.4442 H     101  UNL101      0.1146
    405 N           3.7608    0.4425    0.3352 N.3   102  UNL102     -0.3437
    406 H           3.2885    0.7443   -0.5159 H     102  UNL102      0.1146
    407 H           4.5242   -0.1615    0.0337 H     102  UNL102      0.1146
    408 H           4.1991    1.2762    0.7239 H     102  UNL102      0.1146
    409 N           3.2881    1.0666    4.4057 N.3   103  UNL103     -0.3437
    410 H           2.9428    1.6722    3.6625 H     103  UNL103      0.1146
    411 H           3.9232    0.4071    3.9584 H     103  UNL103      0.1146
    412 H           3.8685    1.6556    5.0011 H     103  UNL103      0.1146
    413 N           3.7940    0.8360    6.3911 N.3   104  UNL104     -0.3437
    414 H           4.6972    1.2791    6.2291 H     104  UNL104      0.1146
    415 H           3.0925    1.5502    6.2002 H     104  UNL104      0.1146
    416 H           3.6889    0.1362    5.6579 H     104  UNL104      0.1146
    417 N           1.3836   -0.6737    7.7206 N.3   105  UNL105     -0.3437
    418 H           1.2014    0.0406    8.4241 H     105  UNL105      0.1146
    419 H           2.3971   -0.7665    7.6705 H     105  UNL105      0.1146
    420 H           1.0405   -1.5490    8.1137 H     105  UNL105      0.1146
    421 N           3.5191    2.2685   -0.1410 N.3   106  UNL106     -0.3437
    422 H           2.8784    2.1479   -0.9241 H     106  UNL106      0.1146
    423 H           3.5829    3.2731    0.0176 H     106  UNL106      0.1146
    424 H           3.0420    1.8853    0.6738 H     106  UNL106      0.1146
    425 N           3.3317    2.9771    1.4380 N.3   107  UNL107     -0.3437
    426 H           3.3765    3.9951    1.4376 H     107  UNL107      0.1146
    427 H           4.2110    2.6572    1.0342 H     107  UNL107      0.1146
    428 H           3.3534    2.6954    2.4171 H     107  UNL107      0.1146
    429 N           3.2476    3.0609    4.1838 N.3   108  UNL108     -0.3437
    430 H           3.3870    3.9282    4.7002 H     108  UNL108      0.1146
    431 H           4.1699    2.6376    4.0914 H     108  UNL108      0.1146
    432 H           2.7180    2.4480    4.8021 H     108  UNL108      0.1146
    433 N           3.7200    3.0197    6.1198 N.3   109  UNL109     -0.3437
    434 H           2.9949    3.5378    6.6139 H     109  UNL109      0.1146
    435 H           4.4784    3.6813    5.9599 H     109  UNL109      0.1146
    436 H           4.0793    2.3361    6.7846 H     109  UNL109      0.1146
    437 N           2.3847    3.0431   10.0579 N.3   110  UNL110     -0.3437
    438 H           2.4661    3.9988    9.7137 H     110  UNL110      0.1146
    439 H           1.3874    2.8343   10.0740 H     110  UNL110      0.1146
    440 H           2.7844    2.4485    9.3333 H     110  UNL110      0.1146
    441 N           3.6992    5.3645    0.2082 N.3   111  UNL111     -0.3437
    442 H           4.2768    4.6975    0.7180 H     111  UNL111      0.1146
    443 H           4.3462    5.9628   -0.3036 H     111  UNL111      0.1146
    444 H           3.2003    4.8232   -0.4963 H     111  UNL111      0.1146
    445 N           3.4974    5.4224    2.2145 N.3   112  UNL112     -0.3437
    446 H           4.3778    5.6085    1.7363 H     112  UNL112      0.1146
    447 H           2.7975    5.3130    1.4819 H     112  UNL112      0.1146
    448 H           3.5999    4.5042    2.6443 H     112  UNL112      0.1146
    449 N           3.9269    5.4487    4.0226 N.3   113  UNL113     -0.3437
    450 H           2.9389    5.3514    4.2524 H     113  UNL113      0.1146
    451 H           4.3789    5.7960    4.8672 H     113  UNL113      0.1146
    452 H           4.2778    4.5019    3.8854 H     113  UNL113      0.1146
    453 N           3.3995    5.0451    6.5103 N.3   114  UNL114     -0.3437
    454 H           4.1921    4.9418    7.1424 H     114  UNL114      0.1146
    455 H           3.1801    6.0402    6.4952 H     114  UNL114      0.1146
    456 H           3.7508    4.8209    5.5804 H     114  UNL114      0.1146
    457 N           3.9320    3.1379    8.2192 N.3   115  UNL115     -0.3437
    458 H           4.4037    2.2351    8.2464 H     115  UNL115      0.1146
    459 H           3.8523    3.4426    9.1883 H     115  UNL115      0.1146
    460 H           4.5845    3.7824    7.7750 H     115  UNL115      0.1146
    461 N           3.6896    7.4227   -0.1165 N.3   116  UNL116     -0.3437
    462 H           3.2276    8.1269    0.4571 H     116  UNL116      0.1146
    463 H           4.3224    7.9323   -0.7315 H     116  UNL116      0.1146
    464 H           4.2830    6.8893    0.5173 H     116  UNL116      0.1146
    465 N           3.5411    7.2553    2.2835 N.3   117  UNL117     -0.3437
    466 H           3.2458    6.9567    1.3550 H     117  UNL117      0.1146
    467 H           4.3625    6.6965    2.5102 H     117  UNL117      0.1146
    468 H           3.8732    8.2129    2.1782 H     117  UNL117      0.1146
    469 N           3.4146    7.7328    3.9932 N.3   118  UNL118     -0.3437
    470 H           3.0733    7.4827    4.9203 H     118  UNL118      0.1146
    471 H           3.9106    8.6158    4.1053 H     118  UNL118      0.1146
    472 H           4.1241    7.0400    3.7588 H     118  UNL118      0.1146
    473 N           3.8364    7.5700    6.2283 N.3   119  UNL119     -0.3437
    474 H           4.1769    7.5987    7.1883 H     119  UNL119      0.1146
    475 H           4.1919    8.4127    5.7789 H     119  UNL119      0.1146
    476 H           4.3174    6.7899    5.7828 H     119  UNL119      0.1146
    477 N           3.8309    5.6541    9.3389 N.3   120  UNL120     -0.3437
    478 H           4.3672    5.1073   10.0110 H     120  UNL120      0.1146
    479 H           3.6475    5.0317    8.5531 H     120  UNL120      0.1146
    480 H           2.9270    5.8283    9.7759 H     120  UNL120      0.1146
    481 N           3.7722    9.5395    0.2459 N.3   121  UNL121     -0.3437
    482 H           4.4649    9.0299   -0.3008 H     121  UNL121      0.1146
    483 H           3.9192   10.5258    0.0364 H     121  UNL121      0.1146
    484 H           2.8664    9.2994   -0.1545 H     121  UNL121      0.1146
    485 N           3.6964    9.8885    2.6647 N.3   122  UNL122     -0.3437
    486 H           3.5190    9.4589    1.7579 H     122  UNL122      0.1146
    487 H           4.3712    9.2860    3.1338 H     122  UNL122      0.1146
    488 H           4.1859   10.7611    2.4712 H     122  UNL122      0.1146
    489 N           3.9142    9.9546    6.2334 N.3   123  UNL123     -0.3437
    490 H           3.2228    9.6629    6.9228 H     123  UNL123      0.1146
    491 H           4.7760    9.4682    6.4767 H     123  UNL123      0.1146
    492 H           3.6095    9.5589    5.3452 H     123  UNL123      0.1146
    493 N           3.7837    8.6421    8.4735 N.3   124  UNL124     -0.3437
    494 H           4.5150    8.8147    7.7852 H     124  UNL124      0.1146
    495 H           2.9002    8.7925    7.9885 H     124  UNL124      0.1146
    496 H           3.8236    7.6453    8.6817 H     124  UNL124      0.1146
    497 N           3.6414   12.1489   -0.1690 N.3   125  UNL125     -0.3437
    498 H           2.9311   12.6547    0.3581 H     125  UNL125      0.1146
    499 H           4.2839   11.7648    0.5224 H     125  UNL125      0.1146
    500 H           3.1661   11.3494   -0.5852 H     125  UNL125      0.1146
    501 N           3.1417   11.7964    1.9654 N.3   126  UNL126     -0.3437
    502 H           3.8847   12.4602    2.1791 H     126  UNL126      0.1146
    503 H           3.5554   11.1019    1.3449 H     126  UNL126      0.1146
    504 H           2.9408   11.3094    2.8376 H     126  UNL126      0.1146
    505 N           3.6891   11.5243    4.2798 N.3   127  UNL127     -0.3437
    506 H           3.2653   10.6672    3.9273 H     127  UNL127      0.1146
    507 H           4.4801   11.2318    4.8519 H     127  UNL127      0.1146
    508 H           4.0880   11.9946    3.4686 H     127  UNL127      0.1146
    509 N           3.4148   11.7813    6.0878 N.3   128  UNL128     -0.3437
    510 H           2.8184   12.3793    6.6577 H     128  UNL128      0.1146
    511 H           3.9635   12.4087    5.5014 H     128  UNL128      0.1146
    512 H           4.0759   11.3486    6.7313 H     128  UNL128      0.1146
    513 N           1.6695   11.7255    9.6909 N.3   129  UNL129     -0.3437
    514 H           2.5374   12.2445    9.5651 H     129  UNL129      0.1146
    515 H           1.0292   12.3599   10.1663 H     129  UNL129      0.1146
    516 H           1.2865   11.5880    8.7566 H     129  UNL129      0.1146
    517 N           3.3513   14.5697   -0.2255 N.3   130  UNL130     -0.3437
    518 H           3.2209   13.6029   -0.5197 H     130  UNL130      0.1146
    519 H           2.7572   15.1311   -0.8341 H     130  UNL130      0.1146
    520 H           2.9431   14.6375    0.7057 H     130  UNL130      0.1146
    521 N           3.5223   14.1872    2.3086 N.3   131  UNL131     -0.3437
    522 H           3.5669   13.7037    1.4127 H     131  UNL131      0.1146
    523 H           2.9090   14.9883    2.1652 H     131  UNL131      0.1146
    524 H           3.0243   13.5620    2.9406 H     131  UNL131      0.1146
    525 N           3.4424   14.6052    4.4825 N.3   132  UNL132     -0.3437
    526 H           3.6534   14.8790    3.5239 H     132  UNL132      0.1146
    527 H           3.4210   13.5864    4.4853 H     132  UNL132      0.1146
    528 H           4.2558   14.8705    5.0359 H     132  UNL132      0.1146
    529 N           3.4611   13.9003    6.2073 N.3   133  UNL133     -0.3437
    530 H           3.5060   13.4272    7.1087 H     133  UNL133      0.1146
    531 H           3.4535   14.8982    6.4139 H     133  UNL133      0.1146
    532 H           4.3520   13.7155    5.7484 H     133  UNL133      0.1146
    533 N           4.0566   11.5500    8.3961 N.3   134  UNL134     -0.3437
    534 H           3.9473   11.2896    9.3752 H     134  UNL134      0.1146
    535 H           3.1145   11.5936    8.0103 H     134  UNL134      0.1146
    536 H           4.4041   12.5079    8.3973 H     134  UNL134      0.1146
    537 N           3.4375   16.5058   -0.0762 N.3   135  UNL135     -0.3437
    538 H           3.0431   16.9317   -0.9137 H     135  UNL135      0.1146
    539 H           4.2676   16.0003   -0.3825 H     135  UNL135      0.1146
    540 H           3.7744   17.2766    0.4988 H     135  UNL135      0.1146
    541 N           3.3535   16.4115    1.7269 N.3   136  UNL136     -0.3437
    542 H           4.1449   17.0531    1.7474 H     136  UNL136      0.1146
    543 H           2.6244   16.8817    1.1924 H     136  UNL136      0.1146
    544 H           3.6498   15.6181    1.1602 H     136  UNL136      0.1146
    545 N           3.9789   16.2842    3.9428 N.3   137  UNL137     -0.3437
    546 H           4.1139   16.4738    4.9349 H     137  UNL137      0.1146
    547 H           4.2624   17.1320    3.4537 H     137  UNL137      0.1146
    548 H           4.6672   15.5744    3.6963 H     137  UNL137      0.1146
    549 N           3.2733   16.7537    6.2697 N.3   138  UNL138     -0.3437
    550 H           4.2818   16.8955    6.2331 H     138  UNL138      0.1146
    551 H           2.8681   17.4590    5.6559 H     138  UNL138      0.1146
    552 H           3.0993   15.8563    5.8195 H     138  UNL138      0.1146
    553 N           3.1966   14.3896    8.7021 N.3   139  UNL139     -0.3437
    554 H           2.7095   13.5422    8.4140 H     139  UNL139      0.1146
    555 H           3.8656   14.1006    9.4143 H     139  UNL139      0.1146
    556 H           3.7508   14.6820    7.8985 H     139  UNL139      0.1146
    557 N           3.8127   18.4536   -0.4259 N.3   140  UNL140     -0.3437
    558 H           2.9271   18.1178   -0.0502 H     140  UNL140      0.1146
    559 H           3.7592   19.4710   -0.4046 H     140  UNL140      0.1146
    560 H           4.5235   18.1954    0.2571 H     140  UNL140      0.1146
    561 N           3.4348   19.0294    1.7387 N.3   141  UNL141     -0.3437
    562 H           3.6069   19.4184    2.6647 H     141  UNL141      0.1146
    563 H           4.3450   18.9729    1.2842 H     141  UNL141      0.1146
    564 H           3.1359   18.0670    1.8894 H     141  UNL141      0.1146
    565 N           4.1563   18.4909    3.8628 N.3   142  UNL142     -0.3437
    566 H           3.8875   18.0580    4.7452 H     142  UNL142      0.1146
    567 H           3.4585   18.1960    3.1812 H     142  UNL142      0.1146
    568 H           4.0202   19.4929    3.9885 H     142  UNL142      0.1146
    569 N           3.5447   18.7280    6.2207 N.3   143  UNL143     -0.3437
    570 H           3.2206   19.6141    6.6054 H     143  UNL143      0.1146
    571 H           4.3529   18.9519    5.6418 H     143  UNL143      0.1146
    572 H           3.9044   18.1937    7.0104 H     143  UNL143      0.1146
    573 N           4.1035   16.0273    9.4784 N.3   144  UNL144     -0.3437
    574 H           4.6258   15.4893   10.1684 H     144  UNL144      0.1146
    575 H           3.7509   16.8474    9.9698 H     144  UNL144      0.1146
    576 H           4.7924   16.3737    8.8122 H     144  UNL144      0.1146
    577 N           3.6739   21.0629    0.3468 N.3   145  UNL145     -0.3437
    578 H           3.2838   20.6760   -0.5114 H     145  UNL145      0.1146
    579 H           4.3606   20.3848    0.6739 H     145  UNL145      0.1146
    580 H           4.2041   21.8872    0.0677 H     145  UNL145      0.1146
    581 N           3.4261   21.4412    2.6569 N.3   146  UNL146     -0.3437
    582 H           3.6942   20.7457    1.9622 H     146  UNL146      0.1146
    583 H           3.1138   20.9171    3.4731 H     146  UNL146      0.1146
    584 H           4.2885   21.9070    2.9355 H     146  UNL146      0.1146
    585 N           3.9879   21.5087    6.2838 N.3   147  UNL147     -0.3437
    586 H           3.0615   21.2959    6.6511 H     147  UNL147      0.1146
    587 H           4.5754   20.7117    6.5245 H     147  UNL147      0.1146
    588 H           3.8977   21.4947    5.2689 H     147  UNL147      0.1146
    589 N           3.3779   19.2668    8.3316 N.3   148  UNL148     -0.3437
    590 H           2.8054   18.6250    7.7850 H     148  UNL148      0.1146
    591 H           3.5663   18.7932    9.2140 H     148  UNL148      0.1146
    592 H           4.2730   19.3260    7.8482 H     148  UNL148      0.1146
    593 N           3.7439   24.2037   -0.4528 N.3   149  UNL149     -0.3437
    594 H           3.0930   24.5609    0.2451 H     149  UNL149      0.1146
    595 H           4.3480   24.9862   -0.6999 H     149  UNL149      0.1146
    596 H           4.3376   23.5335    0.0339 H     149  UNL149      0.1146
    597 N           3.6301   24.2246    1.7706 N.3   150  UNL150     -0.3437
    598 H           3.4884   25.0434    2.3604 H     150  UNL150      0.1146
    599 H           4.3320   24.4924    1.0820 H     150  UNL150      0.1146
    600 H           4.0720   23.5240    2.3640 H     150  UNL150      0.1146
    601 N           3.6094   24.2169    3.8879 N.3   151  UNL151     -0.3437
    602 H           3.2416   24.8708    4.5774 H     151  UNL151      0.1146
    603 H           4.3481   24.7156    3.3939 H     151  UNL151      0.1146
    604 H           4.0735   23.4810    4.4183 H     151  UNL151      0.1146
    605 N           3.6972   24.2882    5.9526 N.3   152  UNL152     -0.3437
    606 H           3.2052   24.4373    6.8324 H     152  UNL152      0.1146
    607 H           4.3257   25.0830    5.8442 H     152  UNL152      0.1146
    608 H           4.2945   23.4758    6.0990 H     152  UNL152      0.1146
    609 N           3.3185   23.9127    8.3930 N.3   153  UNL153     -0.3437
    610 H           4.1079   24.4981    8.1237 H     153  UNL153      0.1146
    611 H           3.2402   23.1974    7.6714 H     153  UNL153      0.1146
    612 H           3.6060   23.4260    9.2408 H     153  UNL153      0.1146
    613 N           5.7043    0.9550   -0.0159 N.3   154  UNL154     -0.3437
    614 H           5.6427    0.0110   -0.3946 H     154  UNL154      0.1146
    615 H           6.1955    0.8696    0.8729 H     154  UNL154      0.1146
    616 H           6.3316    1.4658   -0.6355 H     154  UNL154      0.1146
    617 N           5.5941    0.7755    2.6055 N.3   155  UNL155     -0.3437
    618 H           6.2139   -0.0133    2.4267 H     155  UNL155      0.1146
    619 H           6.2007    1.5776    2.7701 H     155  UNL155      0.1146
    620 H           5.1153    0.9616    1.7254 H     155  UNL155      0.1146
    621 N           5.4476    0.7753    4.7975 N.3   156  UNL156     -0.3437
    622 H           6.1394    0.2597    4.2553 H     156  UNL156      0.1146
    623 H           5.9709    1.2863    5.5072 H     156  UNL156      0.1146
    624 H           5.0661    1.4802    4.1682 H     156  UNL156      0.1146
    625 N           3.9643    0.8060    9.5922 N.3   157  UNL157     -0.3437
    626 H           4.0173    1.8004    9.8084 H     157  UNL157      0.1146
    627 H           3.7272    0.7458    8.6030 H     157  UNL157      0.1146
    628 H           4.9152    0.4494    9.6753 H     157  UNL157      0.1146
    629 N           5.3823    3.1470   -0.0880 N.3   158  UNL158     -0.3437
    630 H           6.3787    3.3221    0.0339 H     158  UNL158      0.1146
    631 H           5.0517    3.8516   -0.7458 H     158  UNL158      0.1146
    632 H           5.3114    2.2541   -0.5738 H     158  UNL158      0.1146
    633 N           4.7892    3.1873    2.1363 N.3   159  UNL159     -0.3437
    634 H           5.0803    3.7514    2.9334 H     159  UNL159      0.1146
    635 H           5.5947    3.1442    1.5136 H     159  UNL159      0.1146
    636 H           4.6597    2.2418    2.4937 H     159  UNL159      0.1146
    637 N           5.7017    3.0337    4.1308 N.3   160  UNL160     -0.3437
    638 H           6.2220    3.5885    3.4527 H     160  UNL160      0.1146
    639 H           6.3977    2.5032    4.6529 H     160  UNL160      0.1146
    640 H           5.3026    3.6993    4.7912 H     160  UNL160      0.1146
    641 N           5.5130    2.7719    7.0258 N.3   161  UNL161     -0.3437
    642 H           6.4373    2.9700    7.4063 H     161  UNL161      0.1146
    643 H           5.6200    2.7744    6.0124 H     161  UNL161      0.1146
    644 H           5.3037    1.8085    7.2837 H     161  UNL161      0.1146
    645 N           5.9869    0.5356    8.0876 N.3   162  UNL162     -0.3437
    646 H           6.0415    1.4661    8.4994 H     162  UNL162      0.1146
    647 H           6.0572   -0.1200    8.8646 H     162  UNL162      0.1146
    648 H           5.0383    0.4431    7.7272 H     162  UNL162      0.1146
    649 N           5.8154    5.5384   -0.0612 N.3   163  UNL163     -0.3437
    650 H           5.4614    4.5945    0.0874 H     163  UNL163      0.1146
    651 H           6.4617    5.7200    0.7054 H     163  UNL163      0.1146
    652 H           6.3854    5.4951   -0.9047 H     163  UNL163      0.1146
    653 N           5.8108    5.0390    2.2341 N.3   164  UNL164     -0.3437
    654 H           6.3217    4.2840    1.7787 H     164  UNL164      0.1146
    655 H           5.9129    4.8827    3.2359 H     164  UNL164      0.1146
    656 H           6.3286    5.8923    2.0289 H     164  UNL164      0.1146
    657 N           5.4439    5.2305    6.2066 N.3   165  UNL165     -0.3437
    658 H           6.1568    4.5098    6.3104 H     165  UNL165      0.1146
    659 H           5.6562    5.9387    6.9079 H     165  UNL165      0.1146
    660 H           5.6171    5.6691    5.3033 H     165  UNL165      0.1146
    661 N           5.5202    3.5200    9.3502 N.3   166  UNL166     -0.3437
    662 H           5.4513    2.5253    9.5605 H     166  UNL166      0.1146
    663 H           5.9478    3.9511   10.1685 H     166  UNL166      0.1146
    664 H           6.2047    3.6016    8.5998 H     166  UNL166      0.1146
    665 N           5.8034    7.5162    0.1889 N.3   167  UNL167     -0.3437
    666 H           5.1136    8.2261    0.4307 H     167  UNL167      0.1146
    667 H           5.7448    6.8075    0.9189 H     167  UNL167      0.1146
    668 H           5.4623    7.0715   -0.6622 H     167  UNL167      0.1146
    669 N           5.3824    7.8083    2.3489 N.3   168  UNL168     -0.3437
    670 H           6.1873    8.3161    1.9849 H     168  UNL168      0.1146
    671 H           4.8095    7.5726    1.5398 H     168  UNL168      0.1146
    672 H           5.7448    6.9244    2.7034 H     168  UNL168      0.1146
    673 N           5.7200    7.5197    4.1162 N.3   169  UNL169     -0.3437
    674 H           4.9283    7.5655    4.7561 H     169  UNL169      0.1146
    675 H           6.4879    7.9986    4.5847 H     169  UNL169      0.1146
    676 H           5.9878    6.5376    4.0706 H     169  UNL169      0.1146
    677 N           5.5243    7.8407    6.2895 N.3   170  UNL170     -0.3437
    678 H           5.5619    7.6184    7.2833 H     170  UNL170      0.1146
    679 H           6.3244    8.4446    6.1064 H     170  UNL170      0.1146
    680 H           5.7134    6.9677    5.7991 H     170  UNL170      0.1146
    681 N           5.4635    5.3134    8.6016 N.3   171  UNL171     -0.3437
    682 H           5.0164    6.1486    8.2262 H     171  UNL171      0.1146
    683 H           6.1716    5.0435    7.9203 H     171  UNL171      0.1146
    684 H           5.9725    5.6158    9.4308 H     171  UNL171      0.1146
    685 N           5.6037    9.6372    0.3019 N.3   172  UNL172     -0.3437
    686 H           5.0987   10.1014   -0.4517 H     172  UNL172      0.1146
    687 H           6.1022    8.8608   -0.1306 H     172  UNL172      0.1146
    688 H           6.3194   10.2952    0.6073 H     172  UNL172      0.1146
    689 N           5.6600    9.8775    1.9909 N.3   173  UNL173     -0.3437
    690 H           5.6321    9.7381    2.9999 H     173  UNL173      0.1146
    691 H           6.5834    9.5689    1.6901 H     173  UNL173      0.1146
    692 H           4.9986    9.2100    1.5967 H     173  UNL173      0.1146
    693 N           5.6025    9.7281    4.9836 N.3   174  UNL174     -0.3437
    694 H           5.0719    8.9127    4.6807 H     174  UNL174      0.1146
    695 H           6.5560    9.4023    5.1354 H     174  UNL174      0.1146
    696 H           5.6436   10.3515    4.1786 H     174  UNL174      0.1146
    697 N           5.6367    7.7423    9.3288 N.3   175  UNL175     -0.3437
    698 H           5.6120    7.1654   10.1684 H     175  UNL175      0.1146
    699 H           6.2335    8.5375    9.5518 H     175  UNL175      0.1146
    700 H           6.1418    7.1994    8.6298 H     175  UNL175      0.1146
    701 N           5.7253   11.9090    0.1057 N.3   176  UNL176     -0.3437
    702 H           5.0710   11.7918   -0.6667 H     176  UNL176      0.1146
    703 H           6.5381   11.3396   -0.1258 H     176  UNL176      0.1146
    704 H           6.0396   12.8774    0.0631 H     176  UNL176      0.1146
    705 N           5.4224   12.3221    1.9245 N.3   177  UNL177     -0.3437
    706 H           6.3172   12.3732    1.4396 H     177  UNL177      0.1146
    707 H           4.7686   12.8691    1.3661 H     177  UNL177      0.1146
    708 H           5.1158   11.3534    1.8468 H     177  UNL177      0.1146
    709 N           5.8749   12.0184    4.0239 N.3   178  UNL178     -0.3437
    710 H           5.0398   12.3195    4.5242 H     178  UNL178      0.1146
    711 H           6.4067   11.4500    4.6816 H     178  UNL178      0.1146
    712 H           5.5525   11.3801    3.2979 H     178  UNL178      0.1146
    713 N           5.3417   11.9279    6.2332 N.3   179  UNL179     -0.3437
    714 H           5.3686   12.2366    7.2039 H     179  UNL179      0.1146
    715 H           6.1641   12.3320    5.7871 H     179  UNL179      0.1146
    716 H           5.4996   10.9214    6.2540 H     179  UNL179      0.1146
    717 N           5.3898   10.0407    8.2287 N.3   180  UNL180     -0.3437
    718 H           5.3363   10.0236    9.2462 H     180  UNL180      0.1146
    719 H           5.9386   10.8654    7.9901 H     180  UNL180      0.1146
    720 H           5.9593    9.2382    7.9639 H     180  UNL180      0.1146
    721 N           5.2179   14.4842    0.0980 N.3   181  UNL181     -0.3437
    722 H           5.3790   15.0615   -0.7262 H     181  UNL181      0.1146
    723 H           4.8906   13.5839   -0.2493 H     181  UNL181      0.1146
    724 H           6.1365   14.3115    0.5039 H     181  UNL181      0.1146
    725 N           5.1579   14.2957    2.2747 N.3   182  UNL182     -0.3437
    726 H           5.5971   14.9350    2.9356 H     182  UNL182      0.1146
    727 H           4.6982   14.8824    1.5797 H     182  UNL182      0.1146
    728 H           5.9207   13.8281    1.7870 H     182  UNL182      0.1146
    729 N           5.6835   13.7243    4.5179 N.3   183  UNL183     -0.3437
    730 H           6.3478   13.3838    3.8243 H     183  UNL183      0.1146
    731 H           5.8331   14.7304    4.5799 H     183  UNL183      0.1146
    732 H           4.7597   13.6026    4.1055 H     183  UNL183      0.1146
    733 N           5.9677   14.5468    6.5270 N.3   184  UNL184     -0.3437
    734 H           4.9940   14.7287    6.2877 H     184  UNL184      0.1146
    735 H           6.1374   13.5704    6.2902 H     184  UNL184      0.1146
    736 H           6.5248   15.0952    5.8734 H     184  UNL184      0.1146
    737 N           5.3560   12.2840   10.1179 N.3   185  UNL185     -0.3437
    738 H           6.0057   13.0666   10.0564 H     185  UNL185      0.1146
    739 H           4.4334   12.6687    9.9202 H     185  UNL185      0.1146
    740 H           5.5788   11.6718    9.3343 H     185  UNL185      0.1146
    741 N           5.7222   16.5294    0.4848 N.3   186  UNL186     -0.3437
    742 H           4.9446   16.1305    1.0087 H     186  UNL186      0.1146
    743 H           6.3647   15.7590    0.3055 H     186  UNL186      0.1146
    744 H           5.3425   16.7954   -0.4226 H     186  UNL186      0.1146
    745 N           5.9490   16.7854    2.0277 N.3   187  UNL187     -0.3437
    746 H           5.1086   16.8213    2.6029 H     187  UNL187      0.1146
    747 H           6.7188   17.0564    2.6379 H     187  UNL187      0.1146
    748 H           6.0975   15.8013    1.8086 H     187  UNL187      0.1146
    749 N           5.6090   16.4446    4.4526 N.3   188  UNL188     -0.3437
    750 H           5.5011   17.0036    5.2977 H     188  UNL188      0.1146
    751 H           5.7961   17.1060    3.7003 H     188  UNL188      0.1146
    752 H           6.4678   15.9103    4.5769 H     188  UNL188      0.1146
    753 N           5.3432   16.6264    7.0122 N.3   189  UNL189     -0.3437
    754 H           5.7197   16.0275    7.7456 H     189  UNL189      0.1146
    755 H           6.0869   17.2815    6.7752 H     189  UNL189      0.1146
    756 H           5.2242   16.0291    6.1953 H     189  UNL189      0.1146
    757 N           3.2943   16.8576    8.1488 N.3   190  UNL190     -0.3437
    758 H           2.7674   16.4365    8.9126 H     190  UNL190      0.1146
    759 H           3.9097   17.5468    8.5786 H     190  UNL190      0.1146
    760 H           3.9026   16.1236    7.7890 H     190  UNL190      0.1146
    761 N           5.4841   18.7466   -0.5487 N.3   191  UNL191     -0.3437
    762 H           6.2679   19.2591   -0.9504 H     191  UNL191      0.1146
    763 H           5.8917   18.0674    0.0925 H     191  UNL191      0.1146
    764 H           4.9802   19.4146    0.0329 H     191  UNL191      0.1146
    765 N           5.6859   18.6156    2.1947 N.3   192  UNL192     -0.3437
    766 H           5.7389   19.0347    1.2674 H     192  UNL192      0.1146
    767 H           5.6893   19.3921    2.8545 H     192  UNL192      0.1146
    768 H           4.7599   18.1953    2.2604 H     192  UNL192      0.1146
    769 N           6.1220   18.5951    4.4569 N.3   193  UNL193     -0.3437
    770 H           5.2608   18.1312    4.7424 H     193  UNL193      0.1146
    771 H           6.3699   18.1955    3.5528 H     193  UNL193      0.1146
    772 H           5.8712   19.5659    4.2755 H     193  UNL193      0.1146
    773 N           5.6796   18.6911    6.4665 N.3   194  UNL194     -0.3437
    774 H           6.0232   18.5246    7.4113 H     194  UNL194      0.1146
    775 H           5.9173   19.6574    6.2474 H     194  UNL194      0.1146
    776 H           6.2539   18.1146    5.8531 H     194  UNL194      0.1146
    777 N           5.5786   18.6095    9.6894 N.3   195  UNL195     -0.3437
    778 H           5.0332   19.3937    9.3346 H     195  UNL195      0.1146
    779 H           4.9594   17.8007    9.6605 H     195  UNL195      0.1146
    780 H           6.3028   18.4337    8.9944 H     195  UNL195      0.1146
    781 N           5.5514   21.2548    0.2679 N.3   196  UNL196     -0.3437
    782 H           5.9247   20.3194    0.1130 H     196  UNL196      0.1146
    783 H           6.3332   21.8178    0.5999 H     196  UNL196      0.1146
    784 H           5.3146   21.6190   -0.6539 H     196  UNL196      0.1146
    785 N           5.5215   21.1242    2.3231 N.3   197  UNL197     -0.3437
    786 H           5.9242   21.9365    1.8579 H     197  UNL197      0.1146
    787 H           5.4524   20.3983    1.6113 H     197  UNL197      0.1146
    788 H           6.2258   20.8020    2.9853 H     197  UNL197      0.1146
    789 N           5.5632   21.0762    5.1508 N.3   198  UNL198     -0.3437
    790 H           6.4828   20.6449    5.2322 H     198  UNL198      0.1146
    791 H           5.6153   21.9495    5.6734 H     198  UNL198      0.1146
    792 H           5.4626   21.3404    4.1718 H     198  UNL198      0.1146
    793 N           3.9673   21.0696    8.4110 N.3   199  UNL199     -0.3437
    794 H           4.2308   20.8547    9.3716 H     199  UNL199      0.1146
    795 H           2.9489   21.0436    8.3866 H     199  UNL199      0.1146
    796 H           4.2270   22.0432    8.2596 H     199  UNL199      0.1146
    797 N           5.6034   24.2105   -0.2883 N.3   200  UNL200     -0.3437
    798 H           5.3928   25.0124    0.3042 H     200  UNL200      0.1146
    799 H           6.3081   24.5291   -0.9519 H     200  UNL200      0.1146
    800 H           6.0697   23.5322    0.3124 H     200  UNL200      0.1146
    801 N           5.5909   24.2225    1.9641 N.3   201  UNL201     -0.3437
    802 H           5.4566   25.0402    2.5571 H     201  UNL201      0.1146
    803 H           6.2738   24.4959    1.2590 H     201  UNL201      0.1146
    804 H           6.0526   23.5257    2.5468 H     201  UNL201      0.1146
    805 N           5.6643   24.2404    3.9736 N.3   202  UNL202     -0.3437
    806 H           5.1612   24.4364    4.8378 H     202  UNL202      0.1146
    807 H           6.1968   25.0829    3.7613 H     202  UNL202      0.1146
    808 H           6.3517   23.5246    4.2050 H     202  UNL202      0.1146
    809 N           5.6140   24.3428    6.5352 N.3   203  UNL203     -0.3437
    810 H           6.1387   24.4001    7.4069 H     203  UNL203      0.1146
    811 H           5.9844   25.0788    5.9356 H     203  UNL203      0.1146
    812 H           5.8868   23.4625    6.1005 H     203  UNL203      0.1146
    813 N           5.3769   23.3172    8.6162 N.3   204  UNL204     -0.3437
    814 H           6.0564   22.8952    9.2475 H     204  UNL204      0.1146
    815 H           5.5609   24.3193    8.6347 H     204  UNL204      0.1146
    816 H           5.6297   23.0026    7.6805 H     204  UNL204      0.1146
    817 N           8.1615    0.4496   -0.1592 N.3   205  UNL205     -0.3437
    818 H           7.1436    0.4938   -0.1735 H     205  UNL205      0.1146
    819 H           8.4857    1.2792   -0.6543 H     205  UNL205      0.1146
    820 H           8.4346    0.5788    0.8140 H     205  UNL205      0.1146
    821 N           7.4990    0.8811    2.0604 N.3   206  UNL206     -0.3437
    822 H           7.2993    0.1457    1.3838 H     206  UNL206      0.1146
    823 H           8.1041    0.4592    2.7634 H     206  UNL206      0.1146
    824 H           8.0730    1.5655    1.5700 H     206  UNL206      0.1146
    825 N           7.8631    0.5622    4.4974 N.3   207  UNL207     -0.3437
    826 H           7.3170    0.4894    5.3547 H     207  UNL207      0.1146
    827 H           7.3357    1.1779    3.8800 H     207  UNL207      0.1146
    828 H           8.7096    1.0720    4.7462 H     207  UNL207      0.1146
    829 N           8.0397    0.5073    9.2721 N.3   208  UNL208     -0.3437
    830 H           8.5158    0.4144   10.1682 H     208  UNL208      0.1146
    831 H           7.1239    0.9028    9.4803 H     208  UNL208      0.1146
    832 H           8.5461    1.2269    8.7582 H     208  UNL208      0.1146
    833 N           7.9212    2.5968   -0.1243 N.3   209  UNL209     -0.3437
    834 H           7.2597    2.6945   -0.8932 H     209  UNL209      0.1146
    835 H           8.4341    3.4763   -0.0816 H     209  UNL209      0.1146
    836 H           7.3603    2.5572    0.7255 H     209  UNL209      0.1146
    837 N           7.6004    3.1737    2.0095 N.3   210  UNL210     -0.3437
    838 H           7.3721    3.9426    2.6380 H     210  UNL210      0.1146
    839 H           8.2569    2.5819    2.5166 H     210  UNL210      0.1146
    840 H           6.7461    2.6267    1.9129 H     210  UNL210      0.1146
    841 N           7.7024    3.2143    4.0277 N.3   211  UNL211     -0.3437
    842 H           7.2063    3.6503    4.8037 H     211  UNL211      0.1146
    843 H           8.3161    2.5154    4.4440 H     211  UNL211      0.1146
    844 H           7.0007    2.6947    3.5023 H     211  UNL211      0.1146
    845 N           7.5841    2.8584    6.1912 N.3   212  UNL212     -0.3437
    846 H           7.8634    3.2042    7.1082 H     212  UNL212      0.1146
    847 H           8.3965    2.3714    5.8153 H     212  UNL212      0.1146
    848 H           6.8815    2.1408    6.3636 H     212  UNL212      0.1146
    849 N           7.6418    2.7300   10.0385 N.3   213  UNL213     -0.3437
    850 H           7.4546    3.7233   10.1676 H     213  UNL213      0.1146
    851 H           6.7488    2.2567   10.1683 H     213  UNL213      0.1146
    852 H           7.8802    2.6148    9.0545 H     213  UNL213      0.1146
    853 N           7.9033    5.3150    0.0786 N.3   214  UNL214     -0.3437
    854 H           7.3144    4.5114   -0.1354 H     214  UNL214      0.1146
    855 H           8.6188    4.9759    0.7201 H     214  UNL214      0.1146
    856 H           8.3889    5.5458   -0.7870 H     214  UNL214      0.1146
    857 N           7.7238    5.6656    2.1353 N.3   215  UNL215     -0.3437
    858 H           7.3953    4.9190    1.5244 H     215  UNL215      0.1146
    859 H           8.0559    5.2088    2.9835 H     215  UNL215      0.1146
    860 H           8.5504    6.0546    1.6838 H     215  UNL215      0.1146
    861 N           7.0489    5.3028    4.4588 N.3   216  UNL216     -0.3437
    862 H           6.3178    4.6069    4.5986 H     216  UNL216      0.1146
    863 H           7.9294    4.7897    4.4624 H     216  UNL216      0.1146
    864 H           6.9294    5.6486    3.5077 H     216  UNL216      0.1146
    865 N           8.1167    5.3920    6.4682 N.3   217  UNL217     -0.3437
    866 H           7.1614    5.6861    6.6665 H     217  UNL217      0.1146
    867 H           8.0629    4.4014    6.2353 H     217  UNL217      0.1146
    868 H           8.3844    5.8685    5.6082 H     217  UNL217      0.1146
    869 N           7.9692    5.1441    8.8846 N.3   218  UNL218     -0.3437
    870 H           7.3733    5.7956    8.3759 H     218  UNL218      0.1146
    871 H           7.6733    5.1945    9.8584 H     218  UNL218      0.1146
    872 H           7.7096    4.2138    8.5599 H     218  UNL218      0.1146
    873 N           7.5012    7.5268    0.0753 N.3   219  UNL219     -0.3437
    874 H           7.8743    8.4655   -0.0588 H     219  UNL219      0.1146
    875 H           7.3373    7.1536   -0.8586 H     219  UNL219      0.1146
    876 H           8.2626    6.9754    0.4684 H     219  UNL219      0.1146
    877 N           7.6899    7.4658    1.8356 N.3   220  UNL220     -0.3437
    878 H           7.1548    7.7256    2.6629 H     220  UNL220      0.1146
    879 H           7.0820    6.8593    1.2869 H     220  UNL220      0.1146
    880 H           7.7988    8.3206    1.2916 H     220  UNL220      0.1146
    881 N           7.4922    6.9777    3.9861 N.3   221  UNL221     -0.3437
    882 H           7.3786    6.9310    4.9976 H     221  UNL221      0.1146
    883 H           7.8763    7.9007    3.7889 H     221  UNL221      0.1146
    884 H           8.2283    6.3120    3.7550 H     221  UNL221      0.1146
    885 N           7.9599    7.1213    6.3732 N.3   222  UNL222     -0.3437
    886 H           8.2240    7.2999    7.3411 H     222  UNL222      0.1146
    887 H           6.9561    6.9459    6.3838 H     222  UNL222      0.1146
    888 H           8.0855    8.0042    5.8802 H     222  UNL222      0.1146
    889 N           7.7556    7.3310    9.4088 N.3   223  UNL223     -0.3437
    890 H           7.4940    7.7530    8.5189 H     223  UNL223      0.1146
    891 H           7.7332    8.0845   10.0944 H     223  UNL223      0.1146
    892 H           6.9925    6.7029    9.6568 H     223  UNL223      0.1146
    893 N           7.7047    9.9450    0.0998 N.3   224  UNL224     -0.3437
    894 H           7.1484    9.2353    0.5745 H     224  UNL224      0.1146
    895 H           8.3966   10.2598    0.7784 H     224  UNL224      0.1146
    896 H           8.2258    9.4545   -0.6257 H     224  UNL224      0.1146
    897 N           7.4421    9.5165    3.7235 N.3   225  UNL225     -0.3437
    898 H           7.2350   10.4703    4.0163 H     225  UNL225      0.1146
    899 H           8.1682    9.5923    3.0126 H     225  UNL225      0.1146
    900 H           7.8802    9.0654    4.5253 H     225  UNL225      0.1146
    901 N           7.1395    9.8722    6.7182 N.3   226  UNL226     -0.3437
    902 H           7.3812   10.5912    7.3986 H     226  UNL226      0.1146
    903 H           7.5803   10.1536    5.8436 H     226  UNL226      0.1146
    904 H           7.6244    9.0276    7.0179 H     226  UNL226      0.1146
    905 N           7.4623    9.5981    9.5734 N.3   227  UNL227     -0.3437
    906 H           7.1535   10.4067    9.0356 H     227  UNL227      0.1146
    907 H           7.8886    8.9606    8.9024 H     227  UNL227      0.1146
    908 H           8.2211    9.9291   10.1675 H     227  UNL227      0.1146
    909 N           7.8076   12.3999    0.1068 N.3   228  UNL228     -0.3437
    910 H           7.0375   12.4199   -0.5601 H     228  UNL228      0.1146
    911 H           7.4859   12.9182    0.9230 H     228  UNL228      0.1146
    912 H           7.8945   11.4298    0.4066 H     228  UNL228      0.1146
    913 N           7.5071   11.7546    1.9789 N.3   229  UNL229     -0.3437
    914 H           7.0287   12.4710    2.5231 H     229  UNL229      0.1146
    915 H           8.4943   11.8317    2.2192 H     229  UNL229      0.1146
    916 H           7.1954   10.8606    2.3557 H     229  UNL229      0.1146
    917 N           7.7186   12.0191    3.7140 N.3   230  UNL230     -0.3437
    918 H           7.7486   12.0637    4.7316 H     230  UNL230      0.1146
    919 H           8.1997   12.8538    3.3820 H     230  UNL230      0.1146
    920 H           8.3085   11.2313    3.4500 H     230  UNL230      0.1146
    921 N           7.8855   12.0371    6.2916 N.3   231  UNL231     -0.3437
    922 H           7.0600   11.4425    6.2327 H     231  UNL231      0.1146
    923 H           7.5481   12.9951    6.2085 H     231  UNL231      0.1146
    924 H           8.2318   11.9431    7.2453 H     231  UNL231      0.1146
    925 N           7.6421   12.0699    9.2311 N.3   232  UNL232     -0.3437
    926 H           7.3620   12.0047    8.2535 H     232  UNL232      0.1146
    927 H           8.3702   11.3691    9.3621 H     232  UNL232      0.1146
    928 H           8.1012   12.9741    9.3321 H     232  UNL232      0.1146
    929 N           7.6799   14.1010    0.0334 N.3   233  UNL233     -0.3437
    930 H           7.0119   14.7917   -0.3057 H     233  UNL233      0.1146
    931 H           8.3943   14.0227   -0.6891 H     233  UNL233      0.1146
    932 H           8.1393   14.5258    0.8377 H     233  UNL233      0.1146
    933 N           7.3607   14.3069    2.2027 N.3   234  UNL234     -0.3437
    934 H           6.7029   14.1820    2.9708 H     234  UNL234      0.1146
    935 H           8.0240   15.0153    2.5134 H     234  UNL234      0.1146
    936 H           7.8878   13.4370    2.1401 H     234  UNL234      0.1146
    937 N           7.5297   14.0737    4.4120 N.3   235  UNL235     -0.3437
    938 H           8.1333   13.4077    4.8922 H     235  UNL235      0.1146
    939 H           7.5787   14.9368    4.9516 H     235  UNL235      0.1146
    940 H           7.9837   14.2730    3.5218 H     235  UNL235      0.1146
    941 N           7.6992   14.4056    6.9717 N.3   236  UNL236     -0.3437
    942 H           8.1548   15.1061    7.5548 H     236  UNL236      0.1146
    943 H           8.4234   14.0389    6.3556 H     236  UNL236      0.1146
    944 H           7.4480   13.6406    7.5961 H     236  UNL236      0.1146
    945 N           5.8126   14.2188    8.4005 N.3   237  UNL237     -0.3437
    946 H           6.6765   14.7524    8.4868 H     237  UNL237      0.1146
    947 H           6.0938   13.2575    8.2129 H     237  UNL237      0.1146
    948 H           5.3925   14.2124    9.3288 H     237  UNL237      0.1146
    949 N           7.8510   16.8895    0.0333 N.3   238  UNL238     -0.3437
    950 H           8.5001   17.1601   -0.7041 H     238  UNL238      0.1146
    951 H           6.9170   17.0326   -0.3482 H     238  UNL238      0.1146
    952 H           7.9573   15.8823    0.1454 H     238  UNL238      0.1146
    953 N           7.6856   16.2222    1.7517 N.3   239  UNL239     -0.3437
    954 H           8.6186   16.2047    1.3424 H     239  UNL239      0.1146
    955 H           7.2485   17.0801    1.4179 H     239  UNL239      0.1146
    956 H           7.1728   15.4575    1.3150 H     239  UNL239      0.1146
    957 N           7.8718   16.0922    4.0089 N.3   240  UNL240     -0.3437
    958 H           7.8031   16.6094    3.1336 H     240  UNL240      0.1146
    959 H           8.6845   15.4849    3.9132 H     240  UNL240      0.1146
    960 H           8.1161   16.7779    4.7219 H     240  UNL240      0.1146
    961 N           7.4894   16.3594    5.9851 N.3   241  UNL241     -0.3437
    962 H           8.3268   16.9160    6.1504 H     241  UNL241      0.1146
    963 H           7.0495   16.2365    6.8960 H     241  UNL241      0.1146
    964 H           6.8596   16.9526    5.4468 H     241  UNL241      0.1146
    965 N           6.2593   16.4659    9.6755 N.3   242  UNL242     -0.3437
    966 H           5.9150   15.5375    9.4348 H     242  UNL242      0.1146
    967 H           7.2758   16.3953    9.6830 H     242  UNL242      0.1146
    968 H           6.0253   17.0657    8.8857 H     242  UNL242      0.1146
    969 N           7.7830   19.0940    0.0334 N.3   243  UNL243     -0.3437
    970 H           8.3527   18.5710    0.6970 H     243  UNL243      0.1146
    971 H           8.4208   19.4114   -0.6953 H     243  UNL243      0.1146
    972 H           7.1690   18.4114   -0.4087 H     243  UNL243      0.1146
    973 N           7.8035   18.9487    2.1495 N.3   244  UNL244     -0.3437
    974 H           8.4242   19.6709    1.7868 H     244  UNL244      0.1146
    975 H           7.1272   18.7624    1.4104 H     244  UNL244      0.1146
    976 H           8.3704   18.1058    2.2303 H     244  UNL244      0.1146
    977 N           7.7071   18.9821    4.0349 N.3   245  UNL245     -0.3437
    978 H           8.6434   19.3792    3.9715 H     245  UNL245      0.1146
    979 H           7.1167   19.5574    3.4359 H     245  UNL245      0.1146
    980 H           7.7582   18.0690    3.5853 H     245  UNL245      0.1146
    981 N           7.4937   19.0617    6.1010 N.3   246  UNL246     -0.3437
    982 H           7.5335   19.4774    7.0305 H     246  UNL246      0.1146
    983 H           8.3254   19.3887    5.6113 H     246  UNL246      0.1146
    984 H           7.6228   18.0599    6.2355 H     246  UNL246      0.1146
    985 N           7.5363   17.1885    8.1120 N.3   247  UNL247     -0.3437
    986 H           7.5835   17.6993    8.9925 H     247  UNL247      0.1146
    987 H           8.2432   17.6049    7.5076 H     247  UNL247      0.1146
    988 H           7.8623   16.2450    8.3168 H     247  UNL247      0.1146
    989 N           7.3497   21.0264   -0.2194 N.3   248  UNL248     -0.3437
    990 H           6.7514   21.5945   -0.8175 H     248  UNL248      0.1146
    991 H           8.1274   20.7252   -0.8050 H     248  UNL248      0.1146
    992 H           7.7469   21.6649    0.4683 H     248  UNL248      0.1146
    993 N           7.5801   21.1528    2.0577 N.3   249  UNL249     -0.3437
    994 H           6.8843   20.5300    1.6498 H     249  UNL249      0.1146
    995 H           7.8720   20.7148    2.9302 H     249  UNL249      0.1146
    996 H           8.3891   21.1134    1.4393 H     249  UNL249      0.1146
    997 N           7.8180   21.6658    4.1226 N.3   250  UNL250     -0.3437
    998 H           8.3345   22.0688    4.9030 H     250  UNL250      0.1146
    999 H           7.6797   20.6833    4.3547 H     250  UNL250      0.1146
   1000 H           6.8932   22.0931    4.1473 H     250  UNL250      0.1146
   1001 N           7.5099   21.3713    6.4757 N.3   251  UNL251     -0.3437
   1002 H           8.1193   20.7983    5.8937 H     251  UNL251      0.1146
   1003 H           7.1090   22.0738    5.8560 H     251  UNL251      0.1146
   1004 H           6.7372   20.7676    6.7529 H     251  UNL251      0.1146
   1005 N           7.0056   20.5662    8.5479 N.3   252  UNL252     -0.3437
   1006 H           6.5987   19.7065    8.1821 H     252  UNL252      0.1146
   1007 H           6.3108   21.2949    8.3909 H     252  UNL252      0.1146
   1008 H           7.0603   20.4434    9.5580 H     252  UNL252      0.1146
   1009 N           7.5506   24.2430   -0.1570 N.3   253  UNL253     -0.3437
   1010 H           7.4529   25.0377    0.4733 H     253  UNL253      0.1146
   1011 H           8.2604   24.5101   -0.8377 H     253  UNL253      0.1146
   1012 H           7.9615   23.4935    0.3977 H     253  UNL253      0.1146
   1013 N           7.6569   24.2561    1.8351 N.3   254  UNL254     -0.3437
   1014 H           7.0493   24.5520    2.5978 H     254  UNL254      0.1146
   1015 H           8.3283   25.0110    1.7019 H     254  UNL254      0.1146
   1016 H           8.1909   23.4651    2.1922 H     254  UNL254      0.1146
   1017 N           7.6960   24.4104    3.9719 N.3   255  UNL255     -0.3437
   1018 H           7.2103   24.3974    4.8676 H     255  UNL255      0.1146
   1019 H           8.5105   25.0086    4.1027 H     255  UNL255      0.1146
   1020 H           8.0587   23.4680    3.8354 H     255  UNL255      0.1146
   1021 N           7.5988   24.3963    6.4009 N.3   256  UNL256     -0.3437
   1022 H           7.7245   24.5448    7.4011 H     256  UNL256      0.1146
   1023 H           8.3372   24.9285    5.9428 H     256  UNL256      0.1146
   1024 H           7.8149   23.4146    6.2334 H     256  UNL256      0.1146
   1025 N           7.4496   23.0245    8.1472 N.3   257  UNL257     -0.3437
   1026 H           7.7452   22.4246    8.9160 H     257  UNL257      0.1146
   1027 H           7.2604   23.9369    8.5597 H     257  UNL257      0.1146
   1028 H           8.2702   23.1483    7.5560 H     257  UNL257      0.1146
   1029 N           9.7911    0.7714    0.0836 N.3   258  UNL258     -0.3437
   1030 H          10.3414   -0.0431   -0.1849 H     258  UNL258      0.1146
   1031 H          10.1441    1.0610    0.9946 H     258  UNL258      0.1146
   1032 H          10.0502    1.5122   -0.5663 H     258  UNL258      0.1146
   1033 N           9.5856    0.6320    3.2182 N.3   259  UNL259     -0.3437
   1034 H           9.4759    0.5361    2.2097 H     259  UNL259      0.1146
   1035 H          10.3766    0.0418    3.4720 H     259  UNL259      0.1146
   1036 H           9.8887    1.5917    3.3777 H     259  UNL259      0.1146
   1037 N           8.9274    0.9098    6.4239 N.3   260  UNL260     -0.3437
   1038 H           9.3397    0.8625    7.3546 H     260  UNL260      0.1146
   1039 H           9.6365    0.5544    5.7841 H     260  UNL260      0.1146
   1040 H           8.1732    0.2247    6.4156 H     260  UNL260      0.1146
   1041 N          10.3286    0.6966    9.8879 N.3   261  UNL261     -0.3437
   1042 H          11.0593    0.0440   10.1682 H     261  UNL261      0.1146
   1043 H          10.8097    1.5290    9.5503 H     261  UNL261      0.1146
   1044 H           9.8793    0.2819    9.0726 H     261  UNL261      0.1146
   1045 N           9.9501    3.0206    0.1880 N.3   262  UNL262     -0.3437
   1046 H          10.1352    3.1092   -0.8101 H     262  UNL262      0.1146
   1047 H           9.5074    3.8940    0.4702 H     262  UNL262      0.1146
   1048 H           9.2342    2.3010    0.2781 H     262  UNL262      0.1146
   1049 N           9.7967    3.1768    2.3403 N.3   263  UNL263     -0.3437
   1050 H          10.0081    2.2464    1.9825 H     263  UNL263      0.1146
   1051 H          10.4201    3.3210    3.1334 H     263  UNL263      0.1146
   1052 H          10.1020    3.8306    1.6208 H     263  UNL263      0.1146
   1053 N           9.8000    4.2268    4.2888 N.3   264  UNL264     -0.3437
   1054 H          10.7253    4.4374    3.9178 H     264  UNL264      0.1146
   1055 H           9.1365    4.6850    3.6657 H     264  UNL264      0.1146
   1056 H           9.6651    3.2256    4.1553 H     264  UNL264      0.1146
   1057 N           9.8004    2.8975    6.5854 N.3   265  UNL265     -0.3437
   1058 H          10.2981    2.0584    6.8795 H     265  UNL265      0.1146
   1059 H          10.3407    3.6842    6.9426 H     265  UNL265      0.1146
   1060 H           9.8876    2.9346    5.5708 H     265  UNL265      0.1146
   1061 N           9.9140    2.9134    9.4555 N.3   266  UNL266     -0.3437
   1062 H          10.8079    3.3867    9.5790 H     266  UNL266      0.1146
   1063 H           9.2720    3.3488   10.1163 H     266  UNL266      0.1146
   1064 H           9.5830    3.1758    8.5281 H     266  UNL266      0.1146
   1065 N           9.8119    5.5333    0.0333 N.3   267  UNL267     -0.3437
   1066 H           9.4232    4.7028   -0.4111 H     267  UNL267      0.1146
   1067 H          10.3516    5.1988    0.8303 H     267  UNL267      0.1146
   1068 H          10.4901    5.9131   -0.6255 H     267  UNL267      0.1146
   1069 N           9.7299    5.6491    2.5995 N.3   268  UNL268     -0.3437
   1070 H           9.4306    4.6969    2.3948 H     268  UNL268      0.1146
   1071 H          10.3049    5.5886    3.4386 H     268  UNL268      0.1146
   1072 H          10.3614    5.9135    1.8447 H     268  UNL268      0.1146
   1073 N           9.6228    4.7420    5.9332 N.3   269  UNL269     -0.3437
   1074 H           9.4066    4.5335    6.9069 H     269  UNL269      0.1146
   1075 H           9.7640    5.7502    5.8865 H     269  UNL269      0.1146
   1076 H          10.5335    4.3223    5.7516 H     269  UNL269      0.1146
   1077 N          10.0577    5.1977   10.0525 N.3   270  UNL270     -0.3437
   1078 H           9.7382    6.1584   10.1678 H     270  UNL270      0.1146
   1079 H           9.3678    4.7416    9.4572 H     270  UNL270      0.1146
   1080 H          10.9132    5.2504    9.5014 H     270  UNL270      0.1146
   1081 N           9.5478    7.7585   -0.0780 N.3   271  UNL271     -0.3437
   1082 H           8.9977    8.2775    0.6050 H     271  UNL271      0.1146
   1083 H          10.3286    8.3637   -0.3279 H     271  UNL271      0.1146
   1084 H           9.9528    6.9716    0.4271 H     271  UNL271      0.1146
   1085 N           9.6206    7.9091    2.1145 N.3   272  UNL272     -0.3437
   1086 H           8.8578    8.3605    2.6173 H     272  UNL272      0.1146
   1087 H          10.1606    7.4053    2.8166 H     272  UNL272      0.1146
   1088 H           9.1878    7.1965    1.5286 H     272  UNL272      0.1146
   1089 N           9.1796    7.3207    4.4596 N.3   273  UNL273     -0.3437
   1090 H          10.1065    6.9436    4.6520 H     273  UNL273      0.1146
   1091 H           9.2174    8.3053    4.7196 H     273  UNL273      0.1146
   1092 H           9.0734    7.3018    3.4463 H     273  UNL273      0.1146
   1093 N           9.7311    7.6122    6.4446 N.3   274  UNL274     -0.3437
   1094 H           9.9318    7.8480    7.4154 H     274  UNL274      0.1146
   1095 H          10.1189    8.3707    5.8854 H     274  UNL274      0.1146
   1096 H          10.2950    6.7904    6.2328 H     274  UNL274      0.1146
   1097 N           9.9097    5.6419    7.7225 N.3   275  UNL275     -0.3437
   1098 H           9.8015    4.7278    8.1596 H     275  UNL275      0.1146
   1099 H           8.9701    6.0282    7.6428 H     275  UNL275      0.1146
   1100 H          10.3955    6.2234    8.4040 H     275  UNL275      0.1146
   1101 N           9.6722    9.9075   -0.6913 N.3   276  UNL276     -0.3437
   1102 H           8.9806   10.6557   -0.7032 H     276  UNL276      0.1146
   1103 H          10.5822   10.3661   -0.7024 H     276  UNL276      0.1146
   1104 H           9.5919    9.4653    0.2232 H     276  UNL276      0.1146
   1105 N           9.5054    9.7432    1.8202 N.3   277  UNL277     -0.3437
   1106 H           9.0860   10.4785    2.3876 H     277  UNL277      0.1146
   1107 H          10.1327   10.2139    1.1696 H     277  UNL277      0.1146
   1108 H          10.1028    9.2090    2.4496 H     277  UNL277      0.1146
   1109 N           9.6864    9.7251    3.7576 N.3   278  UNL278     -0.3437
   1110 H           9.0893    9.7626    4.5824 H     278  UNL278      0.1146
   1111 H          10.4575   10.3659    3.9396 H     278  UNL278      0.1146
   1112 H          10.0938    8.7911    3.7480 H     278  UNL278      0.1146
   1113 N           9.2032    9.5100    6.0771 N.3   279  UNL279     -0.3437
   1114 H           8.8634   10.4389    6.3220 H     279  UNL279      0.1146
   1115 H          10.1025    9.6516    5.6192 H     279  UNL279      0.1146
   1116 H           9.4078    9.0441    6.9599 H     279  UNL279      0.1146
   1117 N           9.4162    7.5363    9.2159 N.3   280  UNL280     -0.3437
   1118 H          10.4297    7.4353    9.1823 H     280  UNL280      0.1146
   1119 H           9.0367    6.5962    9.1136 H     280  UNL280      0.1146
   1120 H           9.1943    7.8268   10.1671 H     280  UNL280      0.1146
   1121 N           9.9361   11.6056   -0.0573 N.3   281  UNL281     -0.3437
   1122 H           9.2686   11.6461    0.7116 H     281  UNL281      0.1146
   1123 H          10.0417   12.5635   -0.3883 H     281  UNL281      0.1146
   1124 H          10.8305   11.3527    0.3604 H     281  UNL281      0.1146
   1125 N           9.9386   12.3935    1.9375 N.3   282  UNL282     -0.3437
   1126 H           9.0916   12.6228    1.4195 H     282  UNL282      0.1146
   1127 H           9.7043   12.5056    2.9229 H     282  UNL282      0.1146
   1128 H          10.0924   11.3960    1.7971 H     282  UNL282      0.1146
   1129 N           9.6972   11.7863    4.3990 N.3   283  UNL283     -0.3437
   1130 H           9.4309   12.6912    4.7847 H     283  UNL283      0.1146
   1131 H          10.6260   11.5864    4.7674 H     283  UNL283      0.1146
   1132 H           9.0727   11.1040    4.8265 H     283  UNL283      0.1146
   1133 N           9.8516   11.9951    6.5335 N.3   284  UNL284     -0.3437
   1134 H          10.3699   12.0635    7.4082 H     284  UNL284      0.1146
   1135 H          10.2100   12.7386    5.9359 H     284  UNL284      0.1146
   1136 H          10.1454   11.1207    6.1006 H     284  UNL284      0.1146
   1137 N          10.3934    8.9513    9.1548 N.3   285  UNL285     -0.3437
   1138 H          10.7632    9.8809    8.9613 H     285  UNL285      0.1146
   1139 H          10.1683    8.9398   10.1486 H     285  UNL285      0.1146
   1140 H           9.5019    8.8959    8.6643 H     285  UNL285      0.1146
   1141 N           9.7872   14.2196   -0.1845 N.3   286  UNL286     -0.3437
   1142 H           9.3017   13.5286    0.3857 H     286  UNL286      0.1146
   1143 H          10.1140   14.9370    0.4611 H     286  UNL286      0.1146
   1144 H          10.6239   13.7559   -0.5359 H     286  UNL286      0.1146
   1145 N           9.2382   14.2892    1.7083 N.3   287  UNL287     -0.3437
   1146 H          10.1580   14.0343    1.3514 H     287  UNL287      0.1146
   1147 H           9.1507   13.8292    2.6133 H     287  UNL287      0.1146
   1148 H           9.2799   15.2884    1.9040 H     287  UNL287      0.1146
   1149 N           9.4860   14.0909    3.9921 N.3   288  UNL288     -0.3437
   1150 H           8.9473   14.5874    4.7004 H     288  UNL288      0.1146
   1151 H           9.8459   14.8054    3.3609 H     288  UNL288      0.1146
   1152 H          10.2977   13.7074    4.4742 H     288  UNL288      0.1146
   1153 N           9.9390   14.5466    6.2310 N.3   289  UNL289     -0.3437
   1154 H          10.7377   15.0955    6.5458 H     289  UNL289      0.1146
   1155 H           9.7575   13.8667    6.9681 H     289  UNL289      0.1146
   1156 H           9.1427   15.1824    6.2334 H     289  UNL289      0.1146
   1157 N           9.5968   12.3973    9.5690 N.3   290  UNL290     -0.3437
   1158 H           9.9297   11.4976    9.9126 H     290  UNL290      0.1146
   1159 H          10.3939   13.0301    9.6207 H     290  UNL290      0.1146
   1160 H           9.4064   12.2660    8.5766 H     290  UNL290      0.1146
   1161 N           9.7464   16.8848    0.1693 N.3   291  UNL291     -0.3437
   1162 H           9.0770   17.4351    0.7055 H     291  UNL291      0.1146
   1163 H          10.4850   16.6270    0.8223 H     291  UNL291      0.1146
   1164 H           9.2685   16.0174   -0.0708 H     291  UNL291      0.1146
   1165 N           9.8501   16.6132    2.2316 N.3   292  UNL292     -0.3437
   1166 H          10.1620   15.8497    2.8300 H     292  UNL292      0.1146
   1167 H           8.8992   16.8307    2.5265 H     292  UNL292      0.1146
   1168 H          10.4156   17.4209    2.4889 H     292  UNL292      0.1146
   1169 N           9.5614   16.5871    4.6939 N.3   293  UNL293     -0.3437
   1170 H           9.7692   15.5964    4.8106 H     293  UNL293      0.1146
   1171 H          10.4487   17.0754    4.8063 H     293  UNL293      0.1146
   1172 H           9.2976   16.7055    3.7168 H     293  UNL293      0.1146
   1173 N           9.9476   16.4334    6.5749 N.3   294  UNL294     -0.3437
   1174 H          10.6392   16.1541    7.2691 H     294  UNL294      0.1146
   1175 H           9.0584   16.4866    7.0699 H     294  UNL294      0.1146
   1176 H          10.1816   17.3903    6.3144 H     294  UNL294      0.1146
   1177 N           9.4851   14.4341    8.4959 N.3   295  UNL295     -0.3437
   1178 H          10.2115   13.7419    8.3185 H     295  UNL295      0.1146
   1179 H           9.5320   15.0952    7.7218 H     295  UNL295      0.1146
   1180 H           8.5981   13.9433    8.3926 H     295  UNL295      0.1146
   1181 N           9.9124   18.8857    0.0461 N.3   296  UNL296     -0.3437
   1182 H          10.3132   18.2734    0.7551 H     296  UNL296      0.1146
   1183 H           9.3007   18.2984   -0.5190 H     296  UNL296      0.1146
   1184 H           9.3006   19.5302    0.5449 H     296  UNL296      0.1146
   1185 N           9.4344   18.9848    2.7786 N.3   297  UNL297     -0.3437
   1186 H           9.7355   18.8651    1.8125 H     297  UNL297      0.1146
   1187 H           9.5168   18.0672    3.2142 H     297  UNL297      0.1146
   1188 H          10.1402   19.5706    3.2223 H     297  UNL297      0.1146
   1189 N           9.2974   18.6727    6.5888 N.3   298  UNL298     -0.3437
   1190 H           9.9019   18.2190    7.2723 H     298  UNL298      0.1146
   1191 H           9.4574   19.6736    6.6930 H     298  UNL298      0.1146
   1192 H           9.6702   18.4224    5.6741 H     298  UNL298      0.1146
   1193 N           9.7957   16.9243    8.3595 N.3   299  UNL299     -0.3437
   1194 H           9.2441   17.1773    9.1781 H     299  UNL299      0.1146
   1195 H          10.5528   17.6045    8.3099 H     299  UNL299      0.1146
   1196 H          10.2343   16.0317    8.5813 H     299  UNL299      0.1146
   1197 N           9.6927   21.0166    0.1638 N.3   300  UNL300     -0.3437
   1198 H          10.1147   21.9343    0.0293 H     300  UNL300      0.1146
   1199 H           9.6487   20.5895   -0.7603 H     300  UNL300      0.1146
   1200 H          10.3707   20.4706    0.6935 H     300  UNL300      0.1146
   1201 N           9.9073   21.3763    1.9677 N.3   301  UNL301     -0.3437
   1202 H           9.2755   21.9978    1.4647 H     301  UNL301      0.1146
   1203 H          10.3297   21.9407    2.7035 H     301  UNL301      0.1146
   1204 H           9.3143   20.6961    2.4410 H     301  UNL301      0.1146
   1205 N          10.0324   21.2209    4.2841 N.3   302  UNL302     -0.3437
   1206 H           9.7976   22.1963    4.1055 H     302  UNL302      0.1146
   1207 H           9.1517   20.7541    4.4957 H     302  UNL302      0.1146
   1208 H          10.3452   20.8396    3.3923 H     302  UNL302      0.1146
   1209 N           9.7276   21.2324    6.2881 N.3   303  UNL303     -0.3437
   1210 H          10.2519   21.3062    7.1588 H     303  UNL303      0.1146
   1211 H           9.9873   22.0471    5.7339 H     303  UNL303      0.1146
   1212 H          10.1101   20.4254    5.7974 H     303  UNL303      0.1146
   1213 N           8.5889   18.9026    8.4562 N.3   304  UNL304     -0.3437
   1214 H           9.5651   18.7443    8.7018 H     304  UNL304      0.1146
   1215 H           8.1044   19.0849    9.3340 H     304  UNL304      0.1146
   1216 H           8.5685   19.7791    7.9369 H     304  UNL304      0.1146
   1217 N           9.5203   24.0472   -0.2055 N.3   305  UNL305     -0.3437
   1218 H           9.0413   24.6793    0.4343 H     305  UNL305      0.1146
   1219 H          10.1769   24.6232   -0.7304 H     305  UNL305      0.1146
   1220 H          10.0884   23.4346    0.3779 H     305  UNL305      0.1146
   1221 N           9.6447   24.2656    1.9332 N.3   306  UNL306     -0.3437
   1222 H           9.4735   24.6404    2.8652 H     306  UNL306      0.1146
   1223 H          10.2408   24.9448    1.4624 H     306  UNL306      0.1146
   1224 H          10.2178   23.4335    2.0661 H     306  UNL306      0.1146
   1225 N           9.6440   23.8971    4.3513 N.3   307  UNL307     -0.3437
   1226 H           9.5213   23.4318    3.4531 H     307  UNL307      0.1146
   1227 H          10.3840   23.3879    4.8326 H     307  UNL307      0.1146
   1228 H          10.0276   24.8174    4.1407 H     307  UNL307      0.1146
   1229 N           9.6887   24.0953    6.3075 N.3   308  UNL308     -0.3437
   1230 H           9.2897   24.4668    7.1684 H     308  UNL308      0.1146
   1231 H          10.2487   24.8481    5.9097 H     308  UNL308      0.1146
   1232 H          10.3497   23.3741    6.5926 H     308  UNL308      0.1146
   1233 N           9.6717   23.5459    8.6759 N.3   309  UNL309     -0.3437
   1234 H          10.2402   23.2862    9.4807 H     309  UNL309      0.1146
   1235 H          10.0978   24.3876    8.2908 H     309  UNL309      0.1146
   1236 H           9.8172   22.8146    7.9814 H     309  UNL309      0.1146
   1237 N          11.6077   -1.0991    0.0338 N.3   310  UNL310     -0.3437
   1238 H          10.7860   -1.2658    0.6129 H     310  UNL310      0.1146
   1239 H          12.4135   -1.2589    0.6368 H     310  UNL310      0.1146
   1240 H          11.6211   -1.8480   -0.6571 H     310  UNL310      0.1146
   1241 N          12.3010    0.9187    0.1437 N.3   311  UNL311     -0.3437
   1242 H          11.2955    0.7820    0.0508 H     311  UNL311      0.1146
   1243 H          12.6813    0.0183    0.4318 H     311  UNL311      0.1146
   1244 H          12.6506    1.0825   -0.7993 H     311  UNL311      0.1146
   1245 N          11.6639    0.8023    2.7749 N.3   312  UNL312     -0.3437
   1246 H          11.5510    0.7892    1.7623 H     312  UNL312      0.1146
   1247 H          12.1202   -0.0758    3.0181 H     312  UNL312      0.1146
   1248 H          12.3431    1.5358    2.9723 H     312  UNL312      0.1146
   1249 N          11.5200    0.7150    6.3433 N.3   313  UNL313     -0.3437
   1250 H          10.9963   -0.0531    6.7605 H     313  UNL313      0.1146
   1251 H          12.5017    0.5248    6.5393 H     313  UNL313      0.1146
   1252 H          11.4104    0.6147    5.3352 H     313  UNL313      0.1146
   1253 N          11.7683   -0.9153    8.7715 N.3   314  UNL314     -0.3437
   1254 H          10.9204   -0.8227    8.2140 H     314  UNL314      0.1146
   1255 H          11.5435   -1.5718    9.5177 H     314  UNL314      0.1146
   1256 H          12.4460   -1.3887    8.1757 H     314  UNL314      0.1146
   1257 N          11.6134    3.1751   -0.1292 N.3   315  UNL315     -0.3437
   1258 H          10.9271    3.9106    0.0331 H     315  UNL315      0.1146
   1259 H          12.4199    3.4114    0.4471 H     315  UNL315      0.1146
   1260 H          11.2179    2.3276    0.2753 H     315  UNL315      0.1146
   1261 N          11.6237    3.0642    1.7186 N.3   316  UNL316     -0.3437
   1262 H          12.1106    3.9267    1.9581 H     316  UNL316      0.1146
   1263 H          12.3227    2.4552    1.2956 H     316  UNL316      0.1146
   1264 H          11.3713    2.6287    2.6047 H     316  UNL316      0.1146
   1265 N          11.5533    3.0805    4.0215 N.3   317  UNL317     -0.3437
   1266 H          11.0669    3.3176    4.8849 H     317  UNL317      0.1146
   1267 H          12.3158    3.7510    3.9354 H     317  UNL317      0.1146
   1268 H          11.9923    2.1757    4.1858 H     317  UNL317      0.1146
   1269 N          11.6169    2.7763    6.3683 N.3   318  UNL318     -0.3437
   1270 H          11.4342    3.1363    7.3039 H     318  UNL318      0.1146
   1271 H          12.0000    3.5569    5.8369 H     318  UNL318      0.1146
   1272 H          12.3771    2.1053    6.4691 H     318  UNL318      0.1146
   1273 N          12.0630    0.7302    8.2814 N.3   319  UNL319     -0.3437
   1274 H          11.1061    0.5118    8.0074 H     319  UNL319      0.1146
   1275 H          12.1111    0.5690    9.2864 H     319  UNL319      0.1146
   1276 H          12.6481    0.0138    7.8537 H     319  UNL319      0.1146
   1277 N          11.6839    5.4229    0.0703 N.3   320  UNL320     -0.3437
   1278 H          11.9896    4.7459    0.7679 H     320  UNL320      0.1146
   1279 H          12.5337    5.7953   -0.3510 H     320  UNL320      0.1146
   1280 H          11.2212    4.8839   -0.6603 H     320  UNL320      0.1146
   1281 N          11.5849    5.4802    2.5973 N.3   321  UNL321     -0.3437
   1282 H          10.9985    4.6890    2.3357 H     321  UNL321      0.1146
   1283 H          12.3692    5.0888    3.1169 H     321  UNL321      0.1146
   1284 H          11.9757    5.8399    1.7277 H     321  UNL321      0.1146
   1285 N          11.0906    5.4429    6.2375 N.3   322  UNL322     -0.3437
   1286 H          12.0295    5.0565    6.1501 H     322  UNL322      0.1146
   1287 H          11.1447    6.1496    6.9696 H     322  UNL322      0.1146
   1288 H          10.9135    5.9491    5.3710 H     322  UNL322      0.1146
   1289 N          11.9406    2.6810    8.5623 N.3   323  UNL323     -0.3437
   1290 H          11.0923    2.2439    8.2050 H     323  UNL323      0.1146
   1291 H          12.2556    2.0940    9.3335 H     323  UNL323      0.1146
   1292 H          12.6398    2.5791    7.8281 H     323  UNL323      0.1146
   1293 N          11.8681    7.3061   -0.2469 N.3   324  UNL324     -0.3437
   1294 H          12.0679    6.7353    0.5732 H     324  UNL324      0.1146
   1295 H          10.9218    7.0617   -0.5355 H     324  UNL324      0.1146
   1296 H          11.8205    8.2682    0.0855 H     324  UNL324      0.1146
   1297 N          11.8309    7.7734    2.0729 N.3   325  UNL325     -0.3437
   1298 H          12.5380    8.2619    1.5254 H     325  UNL325      0.1146
   1299 H          11.2344    7.2956    1.3989 H     325  UNL325      0.1146
   1300 H          12.3250    7.0404    2.5798 H     325  UNL325      0.1146
   1301 N          11.2265    7.7825    3.8054 N.3   326  UNL326     -0.3437
   1302 H          12.0391    8.3166    3.5009 H     326  UNL326      0.1146
   1303 H          11.3377    6.8508    3.4079 H     326  UNL326      0.1146
   1304 H          11.3250    7.6714    4.8135 H     326  UNL326      0.1146
   1305 N          11.7113    7.4366    6.2551 N.3   327  UNL327     -0.3437
   1306 H          11.6954    7.7330    7.2299 H     327  UNL327      0.1146
   1307 H          12.2710    8.1294    5.7600 H     327  UNL327      0.1146
   1308 H          12.2505    6.5722    6.2332 H     327  UNL327      0.1146
   1309 N          12.0925    6.9871    9.7505 N.3   328  UNL328     -0.3437
   1310 H          11.1922    6.5225    9.8607 H     328  UNL328      0.1146
   1311 H          12.7936    6.2477    9.7639 H     328  UNL328      0.1146
   1312 H          12.1000    7.3640    8.8038 H     328  UNL328      0.1146
   1313 N          12.0263    9.8024   -0.1973 N.3   329  UNL329     -0.3437
   1314 H          11.1731    9.5450    0.2969 H     329  UNL329      0.1146
   1315 H          12.2028   10.7784    0.0367 H     329  UNL329      0.1146
   1316 H          12.7761    9.2687    0.2401 H     329  UNL329      0.1146
   1317 N          11.5507    9.7655    2.3358 N.3   330  UNL330     -0.3437
   1318 H          12.0224    9.9757    1.4573 H     330  UNL330      0.1146
   1319 H          12.2466    9.9012    3.0677 H     330  UNL330      0.1146
   1320 H          10.8587   10.5021    2.4662 H     330  UNL330      0.1146
   1321 N          11.5809    9.5884    4.6557 N.3   331  UNL331     -0.3437
   1322 H          10.8569    8.8962    4.8428 H     331  UNL331      0.1146
   1323 H          11.3135   10.4224    5.1767 H     331  UNL331      0.1146
   1324 H          12.4270    9.2376    5.1024 H     331  UNL331      0.1146
   1325 N          11.5571    9.3409    6.4618 N.3   332  UNL332     -0.3437
   1326 H          11.6341   10.3461    6.6104 H     332  UNL332      0.1146
   1327 H          12.4206    8.9367    6.8216 H     332  UNL332      0.1146
   1328 H          10.8165    9.0209    7.0844 H     332  UNL332      0.1146
   1329 N           9.1969   10.4971    8.2392 N.3   333  UNL333     -0.3437
   1330 H           9.3514   10.3277    9.2321 H     333  UNL333      0.1146
   1331 H          10.0828   10.2940    7.7784 H     333  UNL333      0.1146
   1332 H           8.5472    9.7759    7.9291 H     333  UNL333      0.1146
   1333 N          11.7054   12.6498    0.1284 N.3   334  UNL334     -0.3437
   1334 H          10.7833   12.8054    0.5331 H     334  UNL334      0.1146
   1335 H          12.3157   12.4036    0.9064 H     334  UNL334      0.1146
   1336 H          11.6239   11.8090   -0.4415 H     334  UNL334      0.1146
   1337 N          11.5407   12.0817    2.3913 N.3   335  UNL335     -0.3437
   1338 H          10.7272   11.8501    2.9595 H     335  UNL335      0.1146
   1339 H          12.3105   11.5274    2.7638 H     335  UNL335      0.1146
   1340 H          11.3499   11.7087    1.4624 H     335  UNL335      0.1146
   1341 N          11.8172   12.2147    4.0120 N.3   336  UNL336     -0.3437
   1342 H          11.3478   12.7013    4.7745 H     336  UNL336      0.1146
   1343 H          12.6978   12.7060    3.8653 H     336  UNL336      0.1146
   1344 H          12.0655   11.2959    4.3758 H     336  UNL336      0.1146
   1345 N          11.8889   11.8793    6.0972 N.3   337  UNL337     -0.3437
   1346 H          11.9871   11.9636    7.1080 H     337  UNL337      0.1146
   1347 H          12.3104   12.7191    5.7030 H     337  UNL337      0.1146
   1348 H          12.4919   11.1059    5.8200 H     337  UNL337      0.1146
   1349 N          11.6548   11.8344    9.3531 N.3   338  UNL338     -0.3437
   1350 H          11.8288   12.4493   10.1468 H     338  UNL338      0.1146
   1351 H          11.3846   12.4421    8.5810 H     338  UNL338      0.1146
   1352 H          12.5600   11.4420    9.0980 H     338  UNL338      0.1146
   1353 N          11.7482   14.3175    0.1418 N.3   339  UNL339     -0.3437
   1354 H          11.2153   14.9900   -0.4079 H     339  UNL339      0.1146
   1355 H          12.2873   13.7711   -0.5284 H     339  UNL339      0.1146
   1356 H          12.4275   14.8626    0.6708 H     339  UNL339      0.1146
   1357 N          11.6740   14.4233    1.8257 N.3   340  UNL340     -0.3437
   1358 H          12.1851   14.8970    2.5692 H     340  UNL340      0.1146
   1359 H          12.3378   13.7832    1.3921 H     340  UNL340      0.1146
   1360 H          10.9814   13.8376    2.2900 H     340  UNL340      0.1146
   1361 N          11.7298   14.5489    4.1246 N.3   341  UNL341     -0.3437
   1362 H          10.9122   15.0114    4.5196 H     341  UNL341      0.1146
   1363 H          12.1655   14.0429    4.8944 H     341  UNL341      0.1146
   1364 H          11.3707   13.8380    3.4890 H     341  UNL341      0.1146
   1365 N          11.6441   14.0159    6.8222 N.3   342  UNL342     -0.3437
   1366 H          12.1423   14.8859    6.6398 H     342  UNL342      0.1146
   1367 H          11.2880   13.7016    5.9206 H     342  UNL342      0.1146
   1368 H          12.3539   13.3378    7.0956 H     342  UNL342      0.1146
   1369 N          11.7831   14.6349    9.4480 N.3   343  UNL343     -0.3437
   1370 H          12.4454   14.3399   10.1640 H     343  UNL343      0.1146
   1371 H          11.8424   13.9385    8.7065 H     343  UNL343      0.1146
   1372 H          10.8574   14.5278    9.8604 H     343  UNL343      0.1146
   1373 N          11.6552   16.6462   -0.0245 N.3   344  UNL344     -0.3437
   1374 H          11.2387   17.0955   -0.8387 H     344  UNL344      0.1146
   1375 H          12.2384   15.8932   -0.3869 H     344  UNL344      0.1146
   1376 H          12.2960   17.3296    0.3764 H     344  UNL344      0.1146
   1377 N          11.7215   16.1057    2.0645 N.3   345  UNL345     -0.3437
   1378 H          11.6810   17.0572    1.7018 H     345  UNL345      0.1146
   1379 H          10.9510   15.6045    1.6245 H     345  UNL345      0.1146
   1380 H          12.5748   15.6970    1.6862 H     345  UNL345      0.1146
   1381 N          11.7110   16.2860    4.1703 N.3   346  UNL346     -0.3437
   1382 H          12.0200   15.7913    5.0059 H     346  UNL346      0.1146
   1383 H          11.7771   17.2787    4.3910 H     346  UNL346      0.1146
   1384 H          12.4202   16.1084    3.4604 H     346  UNL346      0.1146
   1385 N          11.8960   16.7136    6.5515 N.3   347  UNL347     -0.3437
   1386 H          12.4526   17.3916    6.0330 H     347  UNL347      0.1146
   1387 H          11.3792   17.2483    7.2482 H     347  UNL347      0.1146
   1388 H          11.2005   16.3609    5.8956 H     347  UNL347      0.1146
   1389 N          11.9132   16.7799    9.5108 N.3   348  UNL348     -0.3437
   1390 H          11.0352   16.5039    9.9482 H     348  UNL348      0.1146
   1391 H          12.6332   16.1949    9.9324 H     348  UNL348      0.1146
   1392 H          11.8467   16.4856    8.5375 H     348  UNL348      0.1146
   1393 N          11.6623   19.0781   -0.6136 N.3   349  UNL349     -0.3437
   1394 H          10.9449   19.8017   -0.6140 H     349  UNL349      0.1146
   1395 H          12.4835   19.4970   -0.1793 H     349  UNL349      0.1146
   1396 H          11.3376   18.3609    0.0333 H     349  UNL349      0.1146
   1397 N          11.2664   19.0410    2.3905 N.3   350  UNL350     -0.3437
   1398 H          11.5941   19.7928    2.9953 H     350  UNL350      0.1146
   1399 H          11.3861   19.3762    1.4357 H     350  UNL350      0.1146
   1400 H          11.9316   18.2777    2.5056 H     350  UNL350      0.1146
   1401 N          11.2024   18.8874    4.1893 N.3   351  UNL351     -0.3437
   1402 H          10.4462   19.2295    4.7805 H     351  UNL351      0.1146
   1403 H          11.9345   18.5721    4.8241 H     351  UNL351      0.1146
   1404 H          10.8453   18.0487    3.7338 H     351  UNL351      0.1146
   1405 N          11.2376   18.5062    6.3479 N.3   352  UNL352     -0.3437
   1406 H          12.0749   18.3012    6.8913 H     352  UNL352      0.1146
   1407 H          11.4223   19.3863    5.8686 H     352  UNL352      0.1146
   1408 H          11.1935   17.7941    5.6204 H     352  UNL352      0.1146
   1409 N          11.5027   18.9749    9.3336 N.3   353  UNL353     -0.3437
   1410 H          11.2396   18.2559   10.0061 H     353  UNL353      0.1146
   1411 H          12.2376   19.5217    9.7802 H     353  UNL353      0.1146
   1412 H          11.9484   18.4853    8.5590 H     353  UNL353      0.1146
   1413 N          12.1164   21.0473   -0.1738 N.3   354  UNL354     -0.3437
   1414 H          12.0435   20.3738    0.5874 H     354  UNL354      0.1146
   1415 H          11.1747   21.1498   -0.5493 H     354  UNL354      0.1146
   1416 H          12.3436   21.9400    0.2620 H     354  UNL354      0.1146
   1417 N          11.7794   21.1793    2.0965 N.3   355  UNL355     -0.3437
   1418 H          11.3723   21.3721    1.1824 H     355  UNL355      0.1146
   1419 H          12.4708   20.4458    1.9469 H     355  UNL355      0.1146
   1420 H          12.3059   22.0137    2.3512 H     355  UNL355      0.1146
   1421 N          11.6471   21.2954    3.8658 N.3   356  UNL356     -0.3437
   1422 H          11.7449   22.0850    4.5024 H     356  UNL356      0.1146
   1423 H          12.5688   21.1485    3.4568 H     356  UNL356      0.1146
   1424 H          11.4674   20.4820    4.4526 H     356  UNL356      0.1146
   1425 N          11.7024   21.0637    6.4236 N.3   357  UNL357     -0.3437
   1426 H          12.1196   20.3723    7.0452 H     357  UNL357      0.1146
   1427 H          11.7928   21.9602    6.8996 H     357  UNL357      0.1146
   1428 H          12.3136   21.1148    5.6099 H     357  UNL357      0.1146
   1429 N           9.6596   20.9680    8.5799 N.3   358  UNL358     -0.3437
   1430 H           9.1648   20.4929    9.3335 H     358  UNL358      0.1146
   1431 H          10.1631   20.2416    8.0727 H     358  UNL358      0.1146
   1432 H           8.9408   21.3085    7.9429 H     358  UNL358      0.1146
   1433 N          11.6625   24.2113   -0.2715 N.3   359  UNL359     -0.3437
   1434 H          10.9979   24.5382    0.4284 H     359  UNL359      0.1146
   1435 H          12.2643   25.0066   -0.4806 H     359  UNL359      0.1146
   1436 H          12.2536   23.5282    0.2000 H     359  UNL359      0.1146
   1437 N          11.6233   24.2000    1.8734 N.3   360  UNL360     -0.3437
   1438 H          11.0856   24.6338    2.6225 H     360  UNL360      0.1146
   1439 H          12.2337   24.9292    1.5072 H     360  UNL360      0.1146
   1440 H          12.2356   23.5213    2.3239 H     360  UNL360      0.1146
   1441 N          11.7160   24.2462    3.9936 N.3   361  UNL361     -0.3437
   1442 H          11.3064   24.5457    4.8772 H     361  UNL361      0.1146
   1443 H          12.3104   25.0142    3.6850 H     361  UNL361      0.1146
   1444 H          12.3456   23.4781    4.2218 H     361  UNL361      0.1146
   1445 N          11.7042   24.3958    6.6248 N.3   362  UNL362     -0.3437
   1446 H          11.7756   23.4579    6.2328 H     362  UNL362      0.1146
   1447 H          12.3245   24.4104    7.4331 H     362  UNL362      0.1146
   1448 H          12.1239   25.0202    5.9375 H     362  UNL362      0.1146
   1449 N          11.6984   23.3095    8.5070 N.3   363  UNL363     -0.3437
   1450 H          11.8263   24.3062    8.6763 H     363  UNL363      0.1146
   1451 H          12.2752   23.0859    7.6972 H     363  UNL363      0.1146
   1452 H          12.1284   22.8327    9.2983 H     363  UNL363      0.1146
   1453 N          13.5676   -1.7132   -0.2279 N.3   364  UNL364     -0.3437
   1454 H          14.2367   -1.9381   -0.9628 H     364  UNL364      0.1146
   1455 H          14.1218   -1.4651    0.5904 H     364  UNL364      0.1146
   1456 H          13.1036   -0.8554   -0.5234 H     364  UNL364      0.1146
   1457 N          13.9826    0.7447   -0.0178 N.3   365  UNL365     -0.3437
   1458 H          14.1757    1.2513    0.8450 H     365  UNL365      0.1146
   1459 H          14.6953    1.0411   -0.6831 H     365  UNL365      0.1146
   1460 H          14.1760   -0.2355    0.1828 H     365  UNL365      0.1146
   1461 N          13.7791    0.7108    2.4465 N.3   366  UNL366     -0.3437
   1462 H          13.0367    0.9796    1.8023 H     366  UNL366      0.1146
   1463 H          14.3747    0.0621    1.9339 H     366  UNL366      0.1146
   1464 H          14.3393    1.5490    2.5949 H     366  UNL366      0.1146
   1465 N          13.6434    0.8193    4.6789 N.3   367  UNL367     -0.3437
   1466 H          13.0544    0.4349    3.9416 H     367  UNL367      0.1146
   1467 H          13.7762    0.0670    5.3533 H     367  UNL367      0.1146
   1468 H          14.5557    0.9802    4.2545 H     367  UNL367      0.1146
   1469 N          13.7659    0.4209    9.4803 N.3   368  UNL368     -0.3437
   1470 H          13.0745    0.0642   10.1385 H     368  UNL368      0.1146
   1471 H          13.5337    1.4022    9.3333 H     368  UNL368      0.1146
   1472 H          14.6558    0.4142    9.9767 H     368  UNL368      0.1146
   1473 N          13.7743    2.8503    0.1420 N.3   369  UNL369     -0.3437
   1474 H          13.2765    3.2125   -0.6700 H     369  UNL369      0.1146
   1475 H          14.5816    2.3479   -0.2244 H     369  UNL369      0.1146
   1476 H          14.1473    3.6641    0.6288 H     369  UNL369      0.1146
   1477 N          13.4440    3.1434    2.3118 N.3   370  UNL370     -0.3437
   1478 H          13.6208    2.3588    1.6862 H     370  UNL370      0.1146
   1479 H          12.6916    2.8450    2.9309 H     370  UNL370      0.1146
   1480 H          14.2733    3.2276    2.8980 H     370  UNL370      0.1146
   1481 N          13.4887    2.6067    4.3744 N.3   371  UNL371     -0.3437
   1482 H          14.2379    2.3470    5.0145 H     371  UNL371      0.1146
   1483 H          13.6715    3.5723    4.1050 H     371  UNL371      0.1146
   1484 H          13.6316    2.0488    3.5338 H     371  UNL371      0.1146
   1485 N          13.9796    2.9235    6.4615 N.3   372  UNL372     -0.3437
   1486 H          14.9235    3.0466    6.0978 H     372  UNL372      0.1146
   1487 H          13.3641    3.4204    5.8191 H     372  UNL372      0.1146
   1488 H          13.7624    1.9342    6.3498 H     372  UNL372      0.1146
   1489 N          14.5754    3.2894    9.7522 N.3   373  UNL373     -0.3437
   1490 H          13.6538    3.4195   10.1671 H     373  UNL373      0.1146
   1491 H          14.8719    2.3507   10.0155 H     373  UNL373      0.1146
   1492 H          14.4286    3.2651    8.7441 H     373  UNL373      0.1146
   1493 N          14.1512    5.2459   -0.0471 N.3   374  UNL374     -0.3437
   1494 H          13.4674    5.7956    0.4712 H     374  UNL374      0.1146
   1495 H          14.7748    4.8429    0.6509 H     374  UNL374      0.1146
   1496 H          13.6363    4.4636   -0.4487 H     374  UNL374      0.1146
   1497 N          13.5176    5.3697    1.9649 N.3   375  UNL375     -0.3437
   1498 H          13.8684    4.8153    2.7446 H     375  UNL375      0.1146
   1499 H          14.2969    5.9519    1.6612 H     375  UNL375      0.1146
   1500 H          13.3468    4.7111    1.2063 H     375  UNL375      0.1146
   1501 N          13.7230    5.5210    4.1531 N.3   376  UNL376     -0.3437
   1502 H          12.8373    5.1630    4.5078 H     376  UNL376      0.1146
   1503 H          14.1859    5.9615    4.9468 H     376  UNL376      0.1146
   1504 H          14.2835    4.7026    3.9199 H     376  UNL376      0.1146
   1505 N          13.5800    5.2931    6.3787 N.3   377  UNL377     -0.3437
   1506 H          14.1570    5.6517    7.1382 H     377  UNL377      0.1146
   1507 H          14.2267    4.9005    5.6960 H     377  UNL377      0.1146
   1508 H          13.0661    4.5027    6.7655 H     377  UNL377      0.1146
   1509 N          11.8935    4.8805    8.0694 N.3   378  UNL378     -0.3437
   1510 H          11.9732    5.7520    8.5914 H     378  UNL378      0.1146
   1511 H          12.7579    4.3693    8.2425 H     378  UNL378      0.1146
   1512 H          11.1552    4.3463    8.5255 H     378  UNL378      0.1146
   1513 N          13.8665    7.2859   -0.1122 N.3   379  UNL379     -0.3437
   1514 H          13.1256    7.7384    0.4212 H     379  UNL379      0.1146
   1515 H          14.3862    6.7176    0.5551 H     379  UNL379      0.1146
   1516 H          13.4015    6.6295   -0.7378 H     379  UNL379      0.1146
   1517 N          13.7147    7.5590    2.2449 N.3   380  UNL380     -0.3437
   1518 H          13.2125    6.9481    1.6023 H     380  UNL380      0.1146
   1519 H          14.5336    7.0343    2.5491 H     380  UNL380      0.1146
   1520 H          14.0689    8.3299    1.6805 H     380  UNL380      0.1146
   1521 N          13.3151    7.3445    4.5069 N.3   381  UNL381     -0.3437
   1522 H          13.2793    6.9302    3.5767 H     381  UNL381      0.1146
   1523 H          14.2814    7.2545    4.8176 H     381  UNL381      0.1146
   1524 H          13.1539    8.3422    4.3764 H     381  UNL381      0.1146
   1525 N          13.6136    7.4548    6.2716 N.3   382  UNL382     -0.3437
   1526 H          13.2306    7.9075    7.1003 H     382  UNL382      0.1146
   1527 H          14.0954    8.1854    5.7497 H     382  UNL382      0.1146
   1528 H          14.3401    6.8236    6.6068 H     382  UNL382      0.1146
   1529 N          13.5903    7.8514    9.4555 N.3   383  UNL383     -0.3437
   1530 H          13.1250    8.6120    9.9489 H     383  UNL383      0.1146
   1531 H          14.4662    8.2375    9.1061 H     383  UNL383      0.1146
   1532 H          13.8482    7.1704   10.1684 H     383  UNL383      0.1146
   1533 N          13.8890   10.2372   -0.3922 N.3   384  UNL384     -0.3437
   1534 H          13.1585   10.5197   -1.0440 H     384  UNL384      0.1146
   1535 H          13.5170   10.4131    0.5401 H     384  UNL384      0.1146
   1536 H          13.9653    9.2246   -0.4776 H     384  UNL384      0.1146
   1537 N          13.5700    9.8363    1.9833 N.3   385  UNL385     -0.3437
   1538 H          13.0075   10.6643    2.1736 H     385  UNL385      0.1146
   1539 H          14.5031   10.0432    2.3368 H     385  UNL385      0.1146
   1540 H          13.1992    9.1008    2.5832 H     385  UNL385      0.1146
   1541 N          13.8279    9.6579    3.7878 N.3   386  UNL386     -0.3437
   1542 H          14.2732    9.2176    4.5916 H     386  UNL386      0.1146
   1543 H          12.9825   10.1021    4.1434 H     386  UNL386      0.1146
   1544 H          14.4461   10.4170    3.5049 H     386  UNL386      0.1146
   1545 N          13.7250    9.5718    6.2333 N.3   387  UNL387     -0.3437
   1546 H          13.1411   10.1234    6.8603 H     387  UNL387      0.1146
   1547 H          14.3741   10.2290    5.8030 H     387  UNL387      0.1146
   1548 H          14.2896    8.9705    6.8317 H     387  UNL387      0.1146
   1549 N          12.0290    9.5202   10.0677 N.3   388  UNL388     -0.3437
   1550 H          12.9126   10.0179   10.1672 H     388  UNL388      0.1146
   1551 H          11.3029   10.2351   10.0639 H     388  UNL388      0.1146
   1552 H          12.0353    9.1213    9.1301 H     388  UNL388      0.1146
   1553 N          13.9196   11.8631   -0.2376 N.3   389  UNL389     -0.3437
   1554 H          12.9512   11.8261    0.0774 H     389  UNL389      0.1146
   1555 H          14.1929   12.8437   -0.1910 H     389  UNL389      0.1146
   1556 H          14.4660   11.3850    0.4775 H     389  UNL389      0.1146
   1557 N          13.4980   12.0290    1.9871 N.3   390  UNL390     -0.3437
   1558 H          13.5606   12.5522    2.8593 H     390  UNL390      0.1146
   1559 H          13.6823   12.7004    1.2430 H     390  UNL390      0.1146
   1560 H          14.2888   11.3863    1.9877 H     390  UNL390      0.1146
   1561 N          13.8152   11.5892    4.3077 N.3   391  UNL391     -0.3437
   1562 H          13.2446   11.2239    3.5466 H     391  UNL391      0.1146
   1563 H          14.3084   12.3956    3.9270 H     391  UNL391      0.1146
   1564 H          13.1615   11.9592    4.9963 H     391  UNL391      0.1146
   1565 N          14.1077   12.1043    6.6396 N.3   392  UNL392     -0.3437
   1566 H          13.4249   12.7855    6.3109 H     392  UNL392      0.1146
   1567 H          13.5888   11.4408    7.2131 H     392  UNL392      0.1146
   1568 H          14.4083   11.5873    5.8146 H     392  UNL392      0.1146
   1569 N          14.0892    9.7066    8.4579 N.3   393  UNL393     -0.3437
   1570 H          14.1509    9.5857    9.4678 H     393  UNL393      0.1146
   1571 H          13.0945    9.7339    8.2385 H     393  UNL393      0.1146
   1572 H          14.4451   10.6417    8.2647 H     393  UNL393      0.1146
   1573 N          13.5502   14.6123   -0.0012 N.3   394  UNL394     -0.3437
   1574 H          13.2867   13.6387    0.1442 H     394  UNL394      0.1146
   1575 H          14.4402   14.7371    0.4790 H     394  UNL394      0.1146
   1576 H          13.7526   14.7030   -0.9957 H     394  UNL394      0.1146
   1577 N          13.4689   14.4120    2.0510 N.3   395  UNL395     -0.3437
   1578 H          14.2503   13.8550    1.7080 H     395  UNL395      0.1146
   1579 H          12.9345   13.7983    2.6644 H     395  UNL395      0.1146
   1580 H          13.8760   15.1259    2.6535 H     395  UNL395      0.1146
   1581 N          14.0307   14.2788    4.1850 N.3   396  UNL396     -0.3437
   1582 H          14.4062   13.8652    3.3328 H     396  UNL396      0.1146
   1583 H          13.3726   14.9957    3.8829 H     396  UNL396      0.1146
   1584 H          13.4703   13.5514    4.6269 H     396  UNL396      0.1146
   1585 N          13.9553   14.3288    6.1413 N.3   397  UNL397     -0.3437
   1586 H          14.3289   13.5040    5.6739 H     397  UNL397      0.1146
   1587 H          13.1260   14.5989    5.6143 H     397  UNL397      0.1146
   1588 H          13.6196   14.0095    7.0489 H     397  UNL397      0.1146
   1589 N          14.0863   12.6758    9.4250 N.3   398  UNL398     -0.3437
   1590 H          13.5863   12.8425    8.5530 H     398  UNL398      0.1146
   1591 H          13.4739   13.0092   10.1681 H     398  UNL398      0.1146
   1592 H          14.1333   11.6636    9.5328 H     398  UNL398      0.1146
   1593 N          13.7909   16.6806   -0.2599 N.3   399  UNL399     -0.3437
   1594 H          13.2104   16.1915    0.4199 H     399  UNL399      0.1146
   1595 H          14.5281   17.1361    0.2762 H     399  UNL399      0.1146
   1596 H          14.2503   15.9562   -0.8099 H     399  UNL399      0.1146
   1597 N          14.1174   16.7606    1.7506 N.3   400  UNL400     -0.3437
   1598 H          13.5414   17.3394    1.1409 H     400  UNL400      0.1146
   1599 H          13.4971   16.4224    2.4849 H     400  UNL400      0.1146
   1600 H          14.3739   15.9420    1.2006 H     400  UNL400      0.1146
   1601 N          13.8473   16.6451    4.7000 N.3   401  UNL401     -0.3437
   1602 H          13.8681   16.3240    3.7332 H     401  UNL401      0.1146
   1603 H          14.7149   17.1598    4.8438 H     401  UNL401      0.1146
   1604 H          13.0995   17.3356    4.7506 H     401  UNL401      0.1146
   1605 N          13.8525   16.2998    6.5427 N.3   402  UNL402     -0.3437
   1606 H          14.1750   17.1778    6.1384 H     402  UNL402      0.1146
   1607 H          13.3539   16.5496    7.3955 H     402  UNL402      0.1146
   1608 H          13.1483   15.9373    5.9016 H     402  UNL402      0.1146
   1609 N          13.8625   15.0217    8.6938 N.3   403  UNL403     -0.3437
   1610 H          14.2785   15.6233    9.4033 H     403  UNL403      0.1146
   1611 H          12.9558   15.4316    8.4744 H     403  UNL403      0.1146
   1612 H          14.4330   15.1378    7.8575 H     403  UNL403      0.1146
   1613 N          14.0499   18.4625   -0.2151 N.3   404  UNL404     -0.3437
   1614 H          13.0670   18.1953   -0.2449 H     404  UNL404      0.1146
   1615 H          14.0762   19.4599   -0.4221 H     404  UNL404      0.1146
   1616 H          14.3367   18.3701    0.7584 H     404  UNL404      0.1146
   1617 N          13.5645   18.9579    2.1636 N.3   405  UNL405     -0.3437
   1618 H          13.1098   18.6283    1.3133 H     405  UNL405      0.1146
   1619 H          14.1632   18.1947    2.4758 H     405  UNL405      0.1146
   1620 H          14.1921   19.7068    1.8743 H     405  UNL405      0.1146
   1621 N          13.5933   18.9614    3.9474 N.3   406  UNL406     -0.3437
   1622 H          14.3025   18.2401    4.0705 H     406  UNL406      0.1146
   1623 H          12.7545   18.4789    3.6279 H     406  UNL406      0.1146
   1624 H          13.3795   19.3073    4.8818 H     406  UNL406      0.1146
   1625 N          13.9529   18.6446    6.4880 N.3   407  UNL407     -0.3437
   1626 H          13.1369   19.2375    6.3430 H     407  UNL407      0.1146
   1627 H          14.2523   18.3471    5.5605 H     407  UNL407      0.1146
   1628 H          14.6877   19.2585    6.8368 H     407  UNL407      0.1146
   1629 N          13.7553   18.7496    9.3331 N.3   408  UNL408     -0.3437
   1630 H          14.2300   18.2607    8.5755 H     408  UNL408      0.1146
   1631 H          13.6146   18.0587   10.0687 H     408  UNL408      0.1146
   1632 H          14.4298   19.4187    9.7016 H     408  UNL408      0.1146
   1633 N          13.8094   21.2664    0.0487 N.3   409  UNL409     -0.3437
   1634 H          13.9529   20.8064   -0.8492 H     409  UNL409      0.1146
   1635 H          13.9172   20.5410    0.7562 H     409  UNL409      0.1146
   1636 H          14.6003   21.8973    0.1706 H     409  UNL409      0.1146
   1637 N          14.1358   21.9086    2.1771 N.3   410  UNL410     -0.3437
   1638 H          13.4560   21.4104    1.6043 H     410  UNL410      0.1146
   1639 H          14.5829   21.2026    2.7602 H     410  UNL410      0.1146
   1640 H          14.8550   22.2394    1.5355 H     410  UNL410      0.1146
   1641 N          13.7124   21.7987    4.3136 N.3   411  UNL411     -0.3437
   1642 H          13.9564   20.8987    3.9027 H     411  UNL411      0.1146
   1643 H          14.5545   22.1318    4.7807 H     411  UNL411      0.1146
   1644 H          13.5565   22.4319    3.5306 H     411  UNL411      0.1146
   1645 N          13.6319   20.9166    6.4824 N.3   412  UNL412     -0.3437
   1646 H          14.2507   20.9318    7.2919 H     412  UNL412      0.1146
   1647 H          13.4688   21.8917    6.2353 H     412  UNL412      0.1146
   1648 H          14.1782   20.5209    5.7187 H     412  UNL412      0.1146
   1649 N          11.8717   21.2952    8.6451 N.3   413  UNL413     -0.3437
   1650 H          12.6451   21.6011    8.0563 H     413  UNL413      0.1146
   1651 H          11.0502   21.7990    8.3140 H     413  UNL413      0.1146
   1652 H          11.7128   20.3157    8.4135 H     413  UNL413      0.1146
   1653 N          13.7061   24.1970   -0.2332 N.3   414  UNL414     -0.3437
   1654 H          13.1870   24.6716    0.5042 H     414  UNL414      0.1146
   1655 H          14.3315   24.8962   -0.6311 H     414  UNL414      0.1146
   1656 H          14.3051   23.5194    0.2364 H     414  UNL414      0.1146
   1657 N          13.7080   24.1712    1.8961 N.3   415  UNL415     -0.3437
   1658 H          13.1820   24.7137    2.5797 H     415  UNL415      0.1146
   1659 H          14.3147   24.8352    1.4172 H     415  UNL415      0.1146
   1660 H          14.3250   23.5642    2.4339 H     415  UNL415      0.1146
   1661 N          13.8447   24.2114    3.9734 N.3   416  UNL416     -0.3437
   1662 H          13.2773   24.5748    4.7378 H     416  UNL416      0.1146
   1663 H          14.4436   24.9810    3.6777 H     416  UNL416      0.1146
   1664 H          14.4642   23.5171    4.3888 H     416  UNL416      0.1146
   1665 N          13.6644   24.3088    6.4021 N.3   417  UNL417     -0.3437
   1666 H          13.7618   24.7703    7.3054 H     417  UNL417      0.1146
   1667 H          14.2693   24.8185    5.7597 H     417  UNL417      0.1146
   1668 H          14.0842   23.3867    6.5111 H     417  UNL417      0.1146
   1669 N          13.8370   23.2643    8.6166 N.3   418  UNL418     -0.3437
   1670 H          14.2527   22.9422    9.4894 H     418  UNL418      0.1146
   1671 H          14.2433   24.1806    8.4332 H     418  UNL418      0.1146
   1672 H          14.1966   22.6472    7.8897 H     418  UNL418      0.1146
   1673 N          15.9840    0.4831   -0.0138 N.3   419  UNL419     -0.3437
   1674 H          15.4556    0.8173    0.7908 H     419  UNL419      0.1146
   1675 H          16.5944    1.2517   -0.2879 H     419  UNL419      0.1146
   1676 H          16.5972   -0.2507    0.3379 H     419  UNL419      0.1146
   1677 N          16.1671    0.8776    2.4413 N.3   420  UNL420     -0.3437
   1678 H          15.4641    1.1326    3.1335 H     420  UNL420      0.1146
   1679 H          15.7614    0.1188    1.8953 H     420  UNL420      0.1146
   1680 H          16.2386    1.6724    1.8076 H     420  UNL420      0.1146
   1681 N          15.4327    0.7026    6.0928 N.3   421  UNL421     -0.3437
   1682 H          15.6161    0.1852    5.2343 H     421  UNL421      0.1146
   1683 H          15.2733    0.0014    6.8148 H     421  UNL421      0.1146
   1684 H          16.3090    1.1622    6.3363 H     421  UNL421      0.1146
   1685 N          16.0456   -1.1167    8.5723 N.3   422  UNL422     -0.3437
   1686 H          15.1383   -0.9265    8.1494 H     422  UNL422      0.1146
   1687 H          15.8693   -1.7715    9.3329 H     422  UNL422      0.1146
   1688 H          16.5780   -1.6339    7.8742 H     422  UNL422      0.1146
   1689 N          15.9239    2.9655   -0.0760 N.3   423  UNL423     -0.3437
   1690 H          15.1182    3.5287   -0.3442 H     423  UNL423      0.1146
   1691 H          16.5192    3.5751    0.4829 H     423  UNL423      0.1146
   1692 H          15.5699    2.2555    0.5635 H     423  UNL423      0.1146
   1693 N          15.9197    2.9684    1.8245 N.3   424  UNL424     -0.3437
   1694 H          15.2312    3.5799    1.3882 H     424  UNL424      0.1146
   1695 H          16.5630    3.5810    2.3238 H     424  UNL424      0.1146
   1696 H          15.4173    2.4455    2.5405 H     424  UNL424      0.1146
   1697 N          15.3305    2.8982    4.1429 N.3   425  UNL425     -0.3437
   1698 H          14.9264    3.5878    4.7750 H     425  UNL425      0.1146
   1699 H          15.8285    3.4288    3.4296 H     425  UNL425      0.1146
   1700 H          16.0457    2.4099    4.6801 H     425  UNL425      0.1146
   1701 N          15.9959    2.7716    7.1921 N.3   426  UNL426     -0.3437
   1702 H          15.5070    3.5789    7.5762 H     426  UNL426      0.1146
   1703 H          16.2623    3.0299    6.2431 H     426  UNL426      0.1146
   1704 H          16.8660    2.6944    7.7168 H     426  UNL426      0.1146
   1705 N          15.7519    0.8917    8.6054 N.3   427  UNL427     -0.3437
   1706 H          16.0885    1.5650    9.2922 H     427  UNL427      0.1146
   1707 H          15.0205    1.3684    8.0799 H     427  UNL427      0.1146
   1708 H          16.5203    0.7496    7.9514 H     427  UNL427      0.1146
   1709 N          16.0662    5.5992   -0.1462 N.3   428  UNL428     -0.3437
   1710 H          16.8971    5.6587   -0.7330 H     428  UNL428      0.1146
   1711 H          15.3028    5.9846   -0.7005 H     428  UNL428      0.1146
   1712 H          15.8651    4.6055   -0.0440 H     428  UNL428      0.1146
   1713 N          15.5690    5.2507    1.9598 N.3   429  UNL429     -0.3437
   1714 H          15.2053    4.4987    2.5435 H     429  UNL429      0.1146
   1715 H          16.1898    5.7948    2.5573 H     429  UNL429      0.1146
   1716 H          16.1672    4.8038    1.2664 H     429  UNL429      0.1146
   1717 N          15.8565    4.9589    4.3357 N.3   430  UNL430     -0.3437
   1718 H          15.3688    5.4846    3.6117 H     430  UNL430      0.1146
   1719 H          16.6397    4.5014    3.8713 H     430  UNL430      0.1146
   1720 H          16.2662    5.6531    4.9590 H     430  UNL430      0.1146
   1721 N          15.7000    5.2767    6.4658 N.3   431  UNL431     -0.3437
   1722 H          16.6977    5.4452    6.3452 H     431  UNL431      0.1146
   1723 H          15.2259    5.9882    5.9113 H     431  UNL431      0.1146
   1724 H          15.5076    4.3879    6.0059 H     431  UNL431      0.1146
   1725 N          13.9533    4.9809    9.2705 N.3   432  UNL432     -0.3437
   1726 H          13.0305    4.8000    9.6630 H     432  UNL432      0.1146
   1727 H          13.8538    5.8129    8.6906 H     432  UNL432      0.1146
   1728 H          14.5435    5.2543   10.0549 H     432  UNL432      0.1146
   1729 N          15.8925    7.5777   -0.1876 N.3   433  UNL433     -0.3437
   1730 H          15.2609    7.8894    0.5488 H     433  UNL433      0.1146
   1731 H          16.3867    8.4104   -0.5049 H     433  UNL433      0.1146
   1732 H          16.5911    6.9938    0.2700 H     433  UNL433      0.1146
   1733 N          16.2291    7.5203    1.7680 N.3   434  UNL434     -0.3437
   1734 H          15.7042    6.7446    1.3666 H     434  UNL434      0.1146
   1735 H          15.5349    8.1993    2.0768 H     434  UNL434      0.1146
   1736 H          16.6629    7.1571    2.6155 H     434  UNL434      0.1146
   1737 N          15.7456    7.4946    4.1739 N.3   435  UNL435     -0.3437
   1738 H          16.4052    8.1736    3.7966 H     435  UNL435      0.1146
   1739 H          14.8796    7.6247    3.6528 H     435  UNL435      0.1146
   1740 H          16.1007    6.5784    3.9043 H     435  UNL435      0.1146
   1741 N          15.7652    7.6676    6.3794 N.3   436  UNL436     -0.3437
   1742 H          15.7232    8.1234    7.2898 H     436  UNL436      0.1146
   1743 H          16.3414    8.2680    5.7911 H     436  UNL436      0.1146
   1744 H          16.3014    6.8123    6.5180 H     436  UNL436      0.1146
   1745 N          16.1554    5.1118    8.3603 N.3   437  UNL437     -0.3437
   1746 H          16.0072    4.8420    9.3317 H     437  UNL437      0.1146
   1747 H          15.4311    5.7955    8.1450 H     437  UNL437      0.1146
   1748 H          17.0374    5.6219    8.3419 H     437  UNL437      0.1146
   1749 N          15.8971    9.5815   -0.0642 N.3   438  UNL438     -0.3437
   1750 H          15.2771   10.2180    0.4345 H     438  UNL438      0.1146
   1751 H          16.6826   10.1470   -0.3832 H     438  UNL438      0.1146
   1752 H          16.2744    8.9481    0.6392 H     438  UNL438      0.1146
   1753 N          16.1622    9.9147    2.2978 N.3   439  UNL439     -0.3437
   1754 H          15.9919   10.5289    1.5027 H     439  UNL439      0.1146
   1755 H          16.5994    9.0768    1.9169 H     439  UNL439      0.1146
   1756 H          16.8777   10.3742    2.8595 H     439  UNL439      0.1146
   1757 N          16.0531   10.1343    4.2432 N.3   440  UNL440     -0.3437
   1758 H          15.5900    9.3215    3.8390 H     440  UNL440      0.1146
   1759 H          15.3248   10.6644    4.7198 H     440  UNL440      0.1146
   1760 H          16.6633    9.7744    4.9756 H     440  UNL440      0.1146
   1761 N          15.8157    9.9314    6.3556 N.3   441  UNL441     -0.3437
   1762 H          15.0636   10.3210    6.9222 H     441  UNL441      0.1146
   1763 H          16.3794    9.3651    6.9881 H     441  UNL441      0.1146
   1764 H          15.3726    9.2771    5.7123 H     441  UNL441      0.1146
   1765 N          15.9227    7.2412    9.6696 N.3   442  UNL442     -0.3437
   1766 H          15.6081    7.2753    8.7009 H     442  UNL442      0.1146
   1767 H          15.2785    6.6164   10.1523 H     442  UNL442      0.1146
   1768 H          16.8218    6.7617    9.6561 H     442  UNL442      0.1146
   1769 N          15.7940   12.2425   -0.1653 N.3   443  UNL443     -0.3437
   1770 H          15.2272   12.5255    0.6328 H     443  UNL443      0.1146
   1771 H          15.8854   11.2297   -0.0998 H     443  UNL443      0.1146
   1772 H          15.2245   12.4202   -0.9914 H     443  UNL443      0.1146
   1773 N          15.6627   12.1000    2.4367 N.3   444  UNL444     -0.3437
   1774 H          16.6448   11.8284    2.4357 H     444  UNL444      0.1146
   1775 H          15.1970   11.4674    3.0857 H     444  UNL444      0.1146
   1776 H          15.6267   13.0221    2.8688 H     444  UNL444      0.1146
   1777 N          15.9210   12.4278    4.1934 N.3   445  UNL445     -0.3437
   1778 H          15.2291   12.0798    4.8556 H     445  UNL445      0.1146
   1779 H          16.6832   12.8041    4.7554 H     445  UNL445      0.1146
   1780 H          16.2979   11.6061    3.7232 H     445  UNL445      0.1146
   1781 N          15.8096   11.6855    6.4021 N.3   446  UNL446     -0.3437
   1782 H          15.5024   12.6061    6.0915 H     446  UNL446      0.1146
   1783 H          16.3069   11.2745    5.6134 H     446  UNL446      0.1146
   1784 H          16.5123   11.8518    7.1212 H     446  UNL446      0.1146
   1785 N          15.7664    9.9776    9.4470 N.3   447  UNL447     -0.3437
   1786 H          15.7504    9.1778   10.0782 H     447  UNL447      0.1146
   1787 H          16.4522   10.6255    9.8319 H     447  UNL447      0.1146
   1788 H          16.1621    9.6370    8.5719 H     447  UNL447      0.1146
   1789 N          16.1301   14.0361   -0.0028 N.3   448  UNL448     -0.3437
   1790 H          15.1745   14.0730   -0.3547 H     448  UNL448      0.1146
   1791 H          16.7203   13.8484   -0.8121 H     448  UNL448      0.1146
   1792 H          16.3562   14.9837    0.2959 H     448  UNL448      0.1146
   1793 N          15.8719   14.4818    1.8532 N.3   449  UNL449     -0.3437
   1794 H          15.1494   14.5901    2.5636 H     449  UNL449      0.1146
   1795 H          16.7604   14.6179    2.3332 H     449  UNL449      0.1146
   1796 H          15.8494   13.5013    1.5768 H     449  UNL449      0.1146
   1797 N          15.7486   14.5978    4.1699 N.3   450  UNL450     -0.3437
   1798 H          16.4535   15.0949    4.7124 H     450  UNL450      0.1146
   1799 H          16.2445   14.1719    3.3882 H     450  UNL450      0.1146
   1800 H          15.4346   13.8265    4.7571 H     450  UNL450      0.1146
   1801 N          15.7175   14.2186    6.2335 N.3   451  UNL451     -0.3437
   1802 H          15.2648   13.6356    6.9360 H     451  UNL451      0.1146
   1803 H          16.2082   14.9485    6.7480 H     451  UNL451      0.1146
   1804 H          16.4407   13.6385    5.8107 H     451  UNL451      0.1146
   1805 N          15.7776   11.9022    8.7968 N.3   452  UNL452     -0.3437
   1806 H          16.3636   11.1711    8.3961 H     452  UNL452      0.1146
   1807 H          16.3824   12.7138    8.9146 H     452  UNL452      0.1146
   1808 H          15.1076   12.1541    8.0715 H     452  UNL452      0.1146
   1809 N          15.9959   16.4655    0.0332 N.3   453  UNL453     -0.3437
   1810 H          16.5761   16.1082   -0.7245 H     453  UNL453      0.1146
   1811 H          15.5862   17.3325   -0.3115 H     453  UNL453      0.1146
   1812 H          15.2230   15.8083    0.1291 H     453  UNL453      0.1146
   1813 N          15.8334   16.6327    1.7048 N.3   454  UNL454     -0.3437
   1814 H          15.4136   17.2129    2.4297 H     454  UNL454      0.1146
   1815 H          16.5339   17.2158    1.2490 H     454  UNL454      0.1146
   1816 H          16.3503   15.9030    2.1934 H     454  UNL454      0.1146
   1817 N          15.9447   16.1839    4.1844 N.3   455  UNL455     -0.3437
   1818 H          15.3372   16.7466    3.5906 H     455  UNL455      0.1146
   1819 H          16.5740   15.6891    3.5538 H     455  UNL455      0.1146
   1820 H          16.5253   16.8448    4.6988 H     455  UNL455      0.1146
   1821 N          15.5989   16.3929    6.0342 N.3   456  UNL456     -0.3437
   1822 H          16.5701   16.1292    5.8739 H     456  UNL456      0.1146
   1823 H          15.0351   15.7006    5.5431 H     456  UNL456      0.1146
   1824 H          15.4271   16.2418    7.0272 H     456  UNL456      0.1146
   1825 N          15.9123   14.7567    8.4433 N.3   457  UNL457     -0.3437
   1826 H          15.7229   14.5116    9.4141 H     457  UNL457      0.1146
   1827 H          16.4247   15.6371    8.4707 H     457  UNL457      0.1146
   1828 H          16.5712   14.0589    8.1008 H     457  UNL457      0.1146
   1829 N          15.8984   19.1031   -0.1406 N.3   458  UNL458     -0.3437
   1830 H          15.2411   19.2611    0.6219 H     458  UNL458      0.1146
   1831 H          16.4090   18.2547    0.1001 H     458  UNL458      0.1146
   1832 H          15.3327   18.8688   -0.9551 H     458  UNL458      0.1146
   1833 N          15.6304   18.7008    1.9575 N.3   459  UNL459     -0.3437
   1834 H          15.0462   19.1036    2.6888 H     459  UNL459      0.1146
   1835 H          16.0810   19.4878    1.4927 H     459  UNL459      0.1146
   1836 H          16.3735   18.1956    2.4380 H     459  UNL459      0.1146
   1837 N          15.8710   19.0461    4.1444 N.3   460  UNL460     -0.3437
   1838 H          15.0397   19.2526    4.6965 H     460  UNL460      0.1146
   1839 H          16.6606   19.1313    4.7830 H     460  UNL460      0.1146
   1840 H          15.8099   18.0578    3.9037 H     460  UNL460      0.1146
   1841 N          15.7946   18.3227    6.0765 N.3   461  UNL461     -0.3437
   1842 H          15.7181   17.9020    7.0015 H     461  UNL461      0.1146
   1843 H          15.9687   19.3145    6.2327 H     461  UNL461      0.1146
   1844 H          16.6497   17.9485    5.6676 H     461  UNL461      0.1146
   1845 N          15.5744   17.0699    9.5797 N.3   462  UNL462     -0.3437
   1846 H          15.3258   16.9912    8.5947 H     462  UNL462      0.1146
   1847 H          15.7614   16.1204    9.8990 H     462  UNL462      0.1146
   1848 H          16.4696   17.5562    9.6055 H     462  UNL462      0.1146
   1849 N          15.6972   20.7708   -0.4508 N.3   463  UNL463     -0.3437
   1850 H          15.2654   20.5247    0.4387 H     463  UNL463      0.1146
   1851 H          15.7630   21.7876   -0.4594 H     463  UNL463      0.1146
   1852 H          16.6556   20.4279   -0.4022 H     463  UNL463      0.1146
   1853 N          15.8617   21.0685    1.7880 N.3   464  UNL464     -0.3437
   1854 H          15.6586   20.3472    2.4786 H     464  UNL464      0.1146
   1855 H          16.2068   21.8707    2.3130 H     464  UNL464      0.1146
   1856 H          16.6541   20.7246    1.2475 H     464  UNL464      0.1146
   1857 N          15.8634   21.4429    4.0444 N.3   465  UNL465     -0.3437
   1858 H          15.3195   20.7493    4.5556 H     465  UNL465      0.1146
   1859 H          16.4541   21.9022    4.7362 H     465  UNL465      0.1146
   1860 H          16.4942   20.9166    3.4415 H     465  UNL465      0.1146
   1861 N          15.8606   20.9030    6.5795 N.3   466  UNL466     -0.3437
   1862 H          15.3304   21.6783    6.1843 H     466  UNL466      0.1146
   1863 H          16.5375   20.6336    5.8670 H     466  UNL466      0.1146
   1864 H          16.4028   21.2961    7.3475 H     466  UNL466      0.1146
   1865 N          13.9599   21.3273    9.2833 N.3   467  UNL467     -0.3437
   1866 H          13.3712   21.2920   10.1143 H     467  UNL467      0.1146
   1867 H          14.8989   21.0813    9.5936 H     467  UNL467      0.1146
   1868 H          13.6511   20.5604    8.6876 H     467  UNL467      0.1146
   1869 N          15.6226   24.2103   -0.1907 N.3   468  UNL468     -0.3437
   1870 H          15.3187   24.9305    0.4631 H     468  UNL468      0.1146
   1871 H          16.3450   24.6405   -0.7665 H     468  UNL468      0.1146
   1872 H          16.0950   23.5030    0.3704 H     468  UNL468      0.1146
   1873 N          15.8071   24.2254    1.8546 N.3   469  UNL469     -0.3437
   1874 H          15.2464   24.6536    2.5898 H     469  UNL469      0.1146
   1875 H          16.4928   24.9273    1.5794 H     469  UNL469      0.1146
   1876 H          16.3349   23.4780    2.3032 H     469  UNL469      0.1146
   1877 N          15.8800   24.2161    4.0212 N.3   470  UNL470     -0.3437
   1878 H          15.5492   24.9228    4.6766 H     470  UNL470      0.1146
   1879 H          16.6331   24.6540    3.4925 H     470  UNL470      0.1146
   1880 H          16.3188   23.4914    4.5873 H     470  UNL470      0.1146
   1881 N          15.7062   24.1599    6.1564 N.3   471  UNL471     -0.3437
   1882 H          15.2909   24.4042    7.0544 H     471  UNL471      0.1146
   1883 H          16.3745   24.8997    5.9455 H     471  UNL471      0.1146
   1884 H          16.2596   23.3204    6.3220 H     471  UNL471      0.1146
   1885 N          15.7715   23.4057    8.7436 N.3   472  UNL472     -0.3437
   1886 H          16.5299   23.1681    9.3813 H     472  UNL472      0.1146
   1887 H          16.0511   24.2715    8.2847 H     472  UNL472      0.1146
   1888 H          15.7787   22.6890    8.0192 H     472  UNL472      0.1146
   1889 N          18.1097   -1.1311    4.0963 N.3   473  UNL473     -0.3437
   1890 H          17.4609   -0.6047    4.6795 H     473  UNL473      0.1146
   1891 H          18.6267   -1.7394    4.7297 H     473  UNL473      0.1146
   1892 H          17.5354   -1.7466    3.5222 H     473  UNL473      0.1146
   1893 N          18.2899   -1.7520    6.5887 N.3   474  UNL474     -0.3437
   1894 H          17.5249   -1.8590    5.9241 H     474  UNL474      0.1146
   1895 H          18.9929   -1.1836    6.1186 H     474  UNL474      0.1146
   1896 H          17.9250   -1.1772    7.3468 H     474  UNL474      0.1146
   1897 N          18.0376    0.3673    0.1080 N.3   475  UNL475     -0.3437
   1898 H          19.0425    0.3458    0.2755 H     475  UNL475      0.1146
   1899 H          17.7336    1.3109    0.3436 H     475  UNL475      0.1146
   1900 H          17.9189    0.2774   -0.9001 H     475  UNL475      0.1146
   1901 N          17.9372    0.9800    1.9381 N.3   476  UNL476     -0.3437
   1902 H          17.1586    0.6142    1.3918 H     476  UNL476      0.1146
   1903 H          17.6720    0.8670    2.9155 H     476  UNL476      0.1146
   1904 H          18.7148    0.3402    1.7823 H     476  UNL476      0.1146
   1905 N          18.0004    0.2506    6.0170 N.3   477  UNL477     -0.3437
   1906 H          17.2335   -0.1719    6.5383 H     477  UNL477      0.1146
   1907 H          17.5673    0.7983    5.2747 H     477  UNL477      0.1146
   1908 H          18.4314    0.9245    6.6482 H     477  UNL477      0.1146
   1909 N          18.1838    0.6200    9.9524 N.3   478  UNL478     -0.3437
   1910 H          18.8410   -0.1282   10.1683 H     478  UNL478      0.1146
   1911 H          18.6883    1.4912   10.1101 H     478  UNL478      0.1146
   1912 H          18.0196    0.5685    8.9481 H     478  UNL478      0.1146
   1913 N          18.0143    2.7731    0.0546 N.3   479  UNL479     -0.3437
   1914 H          18.6249    3.5068    0.4113 H     479  UNL479      0.1146
   1915 H          17.4682    3.2005   -0.6921 H     479  UNL479      0.1146
   1916 H          18.6253    2.0944   -0.3975 H     479  UNL479      0.1146
   1917 N          18.2687    3.4039    2.3526 N.3   480  UNL480     -0.3437
   1918 H          17.7189    2.8230    1.7211 H     480  UNL480      0.1146
   1919 H          18.7550    2.7599    2.9749 H     480  UNL480      0.1146
   1920 H          18.9900    3.8380    1.7784 H     480  UNL480      0.1146
   1921 N          17.6430    2.8314    4.3145 N.3   481  UNL481     -0.3437
   1922 H          17.1087    2.5950    3.4796 H     481  UNL481      0.1146
   1923 H          18.4097    2.1615    4.3564 H     481  UNL481      0.1146
   1924 H          18.0712    3.7369    4.1270 H     481  UNL481      0.1146
   1925 N          17.9860    3.0490    6.3403 N.3   482  UNL482     -0.3437
   1926 H          17.5737    3.8641    6.7919 H     482  UNL482      0.1146
   1927 H          18.7470    3.4030    5.7624 H     482  UNL482      0.1146
   1928 H          18.4259    2.5086    7.0837 H     482  UNL482      0.1146
   1929 N          17.6893    3.0725    9.1853 N.3   483  UNL483     -0.3437
   1930 H          17.9583    2.2209    8.6946 H     483  UNL483      0.1146
   1931 H          16.6727    3.1180    9.1322 H     483  UNL483      0.1146
   1932 H          17.9123    2.9134   10.1668 H     483  UNL483      0.1146
   1933 N          18.3476    5.1217    0.1490 N.3   484  UNL484     -0.3437
   1934 H          17.8858    4.5250   -0.5358 H     484  UNL484      0.1146
   1935 H          18.8923    5.7955   -0.3874 H     484  UNL484      0.1146
   1936 H          17.6069    5.6558    0.6011 H     484  UNL484      0.1146
   1937 N          18.3773    5.3743    2.2246 N.3   485  UNL485     -0.3437
   1938 H          17.5609    4.8339    1.9419 H     485  UNL485      0.1146
   1939 H          18.0184    6.2564    2.5873 H     485  UNL485      0.1146
   1940 H          18.7759    4.8835    3.0238 H     485  UNL485      0.1146
   1941 N          18.0519    5.6966    4.8051 N.3   486  UNL486     -0.3437
   1942 H          17.7054    5.4976    3.8677 H     486  UNL486      0.1146
   1943 H          17.9152    4.8415    5.3424 H     486  UNL486      0.1146
   1944 H          19.0601    5.8123    4.7132 H     486  UNL486      0.1146
   1945 N          18.3515    4.8952    9.8188 N.3   487  UNL487     -0.3437
   1946 H          18.5760    5.8658   10.0329 H     487  UNL487      0.1146
   1947 H          17.3583    4.7859   10.0186 H     487  UNL487      0.1146
   1948 H          18.4468    4.8011    8.8086 H     487  UNL487      0.1146
   1949 N          18.0415    7.7288   -0.2303 N.3   488  UNL488     -0.3437
   1950 H          17.4319    8.1476    0.4706 H     488  UNL488      0.1146
   1951 H          18.9803    7.7495    0.1655 H     488  UNL488      0.1146
   1952 H          17.7790    6.7454   -0.2794 H     488  UNL488      0.1146
   1953 N          18.3875    7.9020    1.9617 N.3   489  UNL489     -0.3437
   1954 H          17.6652    8.3681    2.5088 H     489  UNL489      0.1146
   1955 H          19.0094    7.4594    2.6368 H     489  UNL489      0.1146
   1956 H          17.9205    7.1418    1.4696 H     489  UNL489      0.1146
   1957 N          18.1572    7.7775    3.9665 N.3   490  UNL490     -0.3437
   1958 H          17.5766    8.1728    4.7047 H     490  UNL490      0.1146
   1959 H          19.0378    7.5193    4.4095 H     490  UNL490      0.1146
   1960 H          17.7111    6.9018    3.6969 H     490  UNL490      0.1146
   1961 N          17.8082    7.2553    6.2209 N.3   491  UNL491     -0.3437
   1962 H          17.4771    8.0758    6.7263 H     491  UNL491      0.1146
   1963 H          18.7266    7.5025    5.8550 H     491  UNL491      0.1146
   1964 H          17.9707    6.5377    6.9260 H     491  UNL491      0.1146
   1965 N          18.2792    7.7411    8.8537 N.3   492  UNL492     -0.3437
   1966 H          17.3611    8.0950    8.5889 H     492  UNL492      0.1146
   1967 H          18.3144    7.7848    9.8712 H     492  UNL492      0.1146
   1968 H          18.2779    6.7504    8.6151 H     492  UNL492      0.1146
   1969 N          18.0986    9.5868    0.4112 N.3   493  UNL493     -0.3437
   1970 H          17.3375   10.0906    0.8643 H     493  UNL493      0.1146
   1971 H          18.4602   10.2119   -0.3078 H     493  UNL493      0.1146
   1972 H          18.8364    9.5053    1.1093 H     493  UNL493      0.1146
   1973 N          18.1715    9.5244    4.1468 N.3   494  UNL494     -0.3437
   1974 H          18.4559    9.7277    3.1897 H     494  UNL494      0.1146
   1975 H          18.9271    8.9750    4.5537 H     494  UNL494      0.1146
   1976 H          18.1781   10.4175    4.6375 H     494  UNL494      0.1146
   1977 N          18.1491    9.5491    6.5160 N.3   495  UNL495     -0.3437
   1978 H          18.9852   10.1251    6.4296 H     495  UNL495      0.1146
   1979 H          17.3695   10.1414    6.2333 H     495  UNL495      0.1146
   1980 H          18.2288    8.8290    5.7993 H     495  UNL495      0.1146
   1981 N          18.2177   10.0512    9.5460 N.3   496  UNL496     -0.3437
   1982 H          19.1025    9.5700    9.3912 H     496  UNL496      0.1146
   1983 H          17.7640   10.1047    8.6351 H     496  UNL496      0.1146
   1984 H          17.6484    9.4187   10.1066 H     496  UNL496      0.1146
   1985 N          18.0666   11.9957   -0.2173 N.3   497  UNL497     -0.3437
   1986 H          17.6258   12.8661    0.0766 H     497  UNL497      0.1146
   1987 H          19.0612   12.1998   -0.3043 H     497  UNL497      0.1146
   1988 H          17.9791   11.3563    0.5713 H     497  UNL497      0.1146
   1989 N          18.6151   11.8027    2.0421 N.3   498  UNL498     -0.3437
   1990 H          18.2531   10.9468    2.4601 H     498  UNL498      0.1146
   1991 H          17.7993   12.3523    1.7762 H     498  UNL498      0.1146
   1992 H          19.0651   12.3161    2.7986 H     498  UNL498      0.1146
   1993 N          17.9760   11.8714    3.8587 N.3   499  UNL499     -0.3437
   1994 H          17.4503   12.5112    3.2649 H     499  UNL499      0.1146
   1995 H          18.7114   12.4291    4.2905 H     499  UNL499      0.1146
   1996 H          17.3449   11.6062    4.6135 H     499  UNL499      0.1146
   1997 N          17.9805   11.6325    6.2337 N.3   500  UNL500     -0.3437
   1998 H          17.4403   12.4965    6.2365 H     500  UNL500      0.1146
   1999 H          18.8730   11.8606    5.7979 H     500  UNL500      0.1146
   2000 H          18.1888   11.4284    7.2101 H     500  UNL500      0.1146
   2001 N          18.5982   12.0623    8.8048 N.3   501  UNL501     -0.3437
   2002 H          17.7138   11.7373    9.1929 H     501  UNL501      0.1146
   2003 H          19.0637   11.2347    8.4351 H     501  UNL501      0.1146
   2004 H          18.3570   12.6336    7.9962 H     501  UNL501      0.1146
   2005 N          18.7101   14.0975    0.0273 N.3   502  UNL502     -0.3437
   2006 H          17.7128   14.3063    0.0335 H     502  UNL502      0.1146
   2007 H          18.8771   13.5490   -0.8151 H     502  UNL502      0.1146
   2008 H          19.1826   14.9884   -0.1195 H     502  UNL502      0.1146
   2009 N          18.3054   14.0499    2.2108 N.3   503  UNL503     -0.3437
   2010 H          19.1505   13.6636    1.7926 H     503  UNL503      0.1146
   2011 H          18.5823   14.9315    2.6404 H     503  UNL503      0.1146
   2012 H          17.6945   14.2961    1.4332 H     503  UNL503      0.1146
   2013 N          17.7528   14.0288    3.9563 N.3   504  UNL504     -0.3437
   2014 H          18.7548   13.9042    4.0937 H     504  UNL504      0.1146
   2015 H          17.3403   14.0361    4.8881 H     504  UNL504      0.1146
   2016 H          17.6347   14.9721    3.5895 H     504  UNL504      0.1146
   2017 N          17.7265   14.2601    6.5045 N.3   505  UNL505     -0.3437
   2018 H          18.3524   14.7253    7.1604 H     505  UNL505      0.1146
   2019 H          17.3302   14.9974    5.9234 H     505  UNL505      0.1146
   2020 H          18.3234   13.7084    5.8899 H     505  UNL505      0.1146
   2021 N          17.9066   13.9963    9.3342 N.3   506  UNL506     -0.3437
   2022 H          18.4791   13.8253   10.1596 H     506  UNL506      0.1146
   2023 H          17.3027   14.7828    9.5692 H     506  UNL506      0.1146
   2024 H          18.5442   14.3368    8.6158 H     506  UNL506      0.1146
   2025 N          18.3751   16.4934   -0.2017 N.3   507  UNL507     -0.3437
   2026 H          17.6608   17.0830    0.2232 H     507  UNL507      0.1146
   2027 H          19.0348   16.2710    0.5425 H     507  UNL507      0.1146
   2028 H          17.9120   15.6170   -0.4376 H     507  UNL507      0.1146
   2029 N          18.2315   16.5536    1.9629 N.3   508  UNL508     -0.3437
   2030 H          17.5311   17.1354    2.4204 H     508  UNL508      0.1146
   2031 H          18.9431   16.3645    2.6674 H     508  UNL508      0.1146
   2032 H          17.7769   15.6610    1.7763 H     508  UNL508      0.1146
   2033 N          18.1249   16.6129    3.9615 N.3   509  UNL509     -0.3437
   2034 H          17.3924   17.2688    3.6940 H     509  UNL509      0.1146
   2035 H          18.7807   17.1424    4.5342 H     509  UNL509      0.1146
   2036 H          17.6846   15.9404    4.5879 H     509  UNL509      0.1146
   2037 N          18.4041   16.5075    6.5058 N.3   510  UNL510     -0.3437
   2038 H          17.7059   16.1486    7.1555 H     510  UNL510      0.1146
   2039 H          18.7238   15.7049    5.9654 H     510  UNL510      0.1146
   2040 H          17.8989   17.1034    5.8515 H     510  UNL510      0.1146
   2041 N          18.1467   16.3418    9.7386 N.3   511  UNL511     -0.3437
   2042 H          18.7182   15.6153   10.1676 H     511  UNL511      0.1146
   2043 H          18.5498   17.2289   10.0367 H     511  UNL511      0.1146
   2044 H          18.3179   16.2784    8.7361 H     511  UNL511      0.1146
   2045 N          18.1970   18.8075    0.2581 N.3   512  UNL512     -0.3437
   2046 H          19.1001   19.2250    0.0379 H     512  UNL512      0.1146
   2047 H          17.5630   19.5859    0.4332 H     512  UNL512      0.1146
   2048 H          17.8726   18.3694   -0.6028 H     512  UNL512      0.1146
   2049 N          18.2160   18.6126    2.3446 N.3   513  UNL513     -0.3437
   2050 H          17.4460   19.0698    1.8583 H     513  UNL513      0.1146
   2051 H          18.7974   18.1945    1.6196 H     513  UNL513      0.1146
   2052 H          18.7732   19.3609    2.7545 H     513  UNL513      0.1146
   2053 N          18.1143   18.5433    4.3348 N.3   514  UNL514     -0.3437
   2054 H          17.3855   18.6621    3.6326 H     514  UNL514      0.1146
   2055 H          18.9647   18.3161    3.8214 H     514  UNL514      0.1146
   2056 H          18.2682   19.4661    4.7387 H     514  UNL514      0.1146
   2057 N          18.0470   18.9192    6.2966 N.3   515  UNL515     -0.3437
   2058 H          17.4032   18.3058    6.7942 H     515  UNL515      0.1146
   2059 H          18.5367   19.4531    7.0132 H     515  UNL515      0.1146
   2060 H          18.7457   18.3096    5.8741 H     515  UNL515      0.1146
   2061 N          16.0366   18.9775    8.3671 N.3   516  UNL516     -0.3437
   2062 H          16.0275   19.1326    9.3742 H     516  UNL516      0.1146
   2063 H          16.5792   19.7431    7.9698 H     516  UNL516      0.1146
   2064 H          16.5893   18.1345    8.2178 H     516  UNL516      0.1146
   2065 N          18.6249   21.3525   -0.0826 N.3   517  UNL517     -0.3437
   2066 H          17.6633   21.6612   -0.2180 H     517  UNL517      0.1146
   2067 H          18.6233   20.7943    0.7699 H     517  UNL517      0.1146
   2068 H          18.8211   20.7031   -0.8430 H     517  UNL517      0.1146
   2069 N          18.0105   21.6077    2.3600 N.3   518  UNL518     -0.3437
   2070 H          17.8194   22.0398    1.4572 H     518  UNL518      0.1146
   2071 H          17.9007   20.6043    2.2200 H     518  UNL518      0.1146
   2072 H          19.0021   21.7592    2.5397 H     518  UNL518      0.1146
   2073 N          18.0392   21.2175    4.2888 N.3   519  UNL519     -0.3437
   2074 H          19.0439   21.3505    4.1827 H     519  UNL519      0.1146
   2075 H          17.6009   22.0260    3.8500 H     519  UNL519      0.1146
   2076 H          17.7988   20.4169    3.7060 H     519  UNL519      0.1146
   2077 N          17.9973   21.0750    6.6403 N.3   520  UNL520     -0.3437
   2078 H          18.6587   21.5446    7.2571 H     520  UNL520      0.1146
   2079 H          17.5165   21.8139    6.1292 H     520  UNL520      0.1146
   2080 H          18.5601   20.5776    5.9516 H     520  UNL520      0.1146
   2081 N          17.5169   21.4308    9.2523 N.3   521  UNL521     -0.3437
   2082 H          16.9831   20.6685    9.6673 H     521  UNL521      0.1146
   2083 H          17.9590   21.9198   10.0294 H     521  UNL521      0.1146
   2084 H          18.2737   20.9919    8.7298 H     521  UNL521      0.1146
   2085 N          17.8247   24.1943   -0.2360 N.3   522  UNL522     -0.3437
   2086 H          17.3077   24.8293    0.3705 H     522  UNL522      0.1146
   2087 H          18.5815   24.7449   -0.6391 H     522  UNL522      0.1146
   2088 H          18.2688   23.5158    0.3810 H     522  UNL522      0.1146
   2089 N          17.9233   24.2408    1.9659 N.3   523  UNL523     -0.3437
   2090 H          17.8228   24.8746    2.7574 H     523  UNL523      0.1146
   2091 H          18.5222   24.7211    1.2958 H     523  UNL523      0.1146
   2092 H          18.4642   23.4478    2.3079 H     523  UNL523      0.1146
   2093 N          17.9848   23.8299    4.0444 N.3   524  UNL524     -0.3437
   2094 H          17.9427   24.7876    4.3898 H     524  UNL524      0.1146
   2095 H          18.9445   23.6853    3.7336 H     524  UNL524      0.1146
   2096 H          17.8606   23.2315    4.8598 H     524  UNL524      0.1146
   2097 N          18.0692   24.4000    6.2335 N.3   525  UNL525     -0.3437
   2098 H          17.5280   24.7516    7.0220 H     525  UNL525      0.1146
   2099 H          19.0190   24.7435    6.3691 H     525  UNL525      0.1146
   2100 H          18.1164   23.3892    6.3537 H     525  UNL525      0.1146
   2101 N          18.1998   23.5905    8.2992 N.3   526  UNL526     -0.3437
   2102 H          18.0165   23.6175    9.3013 H     526  UNL526      0.1146
   2103 H          19.0586   23.0540    8.1852 H     526  UNL526      0.1146
   2104 H          17.4577   23.0223    7.8932 H     526  UNL526      0.1146
   2105 N          20.6002    0.9319   -0.0700 N.3   527  UNL527     -0.3437
   2106 H          20.6460    0.0866    0.4973 H     527  UNL527      0.1146
   2107 H          21.5463    1.0914   -0.4133 H     527  UNL527      0.1146
   2108 H          20.0416    0.6916   -0.8876 H     527  UNL527      0.1146
   2109 N          20.2482    1.0936    2.1653 N.3   528  UNL528     -0.3437
   2110 H          19.8552    0.2289    2.5345 H     528  UNL528      0.1146
   2111 H          21.1161    0.8315    1.6999 H     528  UNL528      0.1146
   2112 H          19.6146    1.3975    1.4273 H     528  UNL528      0.1146
   2113 N          21.0644    0.6729    4.4170 N.3   529  UNL529     -0.3437
   2114 H          20.1731    0.2938    4.7338 H     529  UNL529      0.1146
   2115 H          21.5109   -0.0699    3.8810 H     529  UNL529      0.1146
   2116 H          20.8356    1.4047    3.7458 H     529  UNL529      0.1146
   2117 N          21.0002    0.7579    6.2712 N.3   530  UNL530     -0.3437
   2118 H          20.1009    0.9519    6.7093 H     530  UNL530      0.1146
   2119 H          21.3714    1.6611    5.9799 H     530  UNL530      0.1146
   2120 H          21.6116    0.4306    7.0178 H     530  UNL530      0.1146
   2121 N          20.3044    0.9388    8.8999 N.3   531  UNL531     -0.3437
   2122 H          20.3579    0.8342    9.9121 H     531  UNL531      0.1146
   2123 H          21.2677    0.9585    8.5683 H     531  UNL531      0.1146
   2124 H          19.9042    0.0700    8.5486 H     531  UNL531      0.1146
   2125 N          20.9683    3.0651    0.0170 N.3   532  UNL532     -0.3437
   2126 H          20.1305    2.7260   -0.4537 H     532  UNL532      0.1146
   2127 H          21.3419    2.2697    0.5330 H     532  UNL532      0.1146
   2128 H          21.6434    3.2640   -0.7199 H     532  UNL532      0.1146
   2129 N          20.8375    3.0649    1.9319 N.3   533  UNL533     -0.3437
   2130 H          19.9256    2.6947    2.1960 H     533  UNL533      0.1146
   2131 H          21.0715    3.7638    2.6356 H     533  UNL533      0.1146
   2132 H          21.4994    2.3014    2.0635 H     533  UNL533      0.1146
   2133 N          20.6972    3.1708    4.4536 N.3   534  UNL534     -0.3437
   2134 H          20.0795    3.4669    3.6992 H     534  UNL534      0.1146
   2135 H          20.2587    2.3507    4.8702 H     534  UNL534      0.1146
   2136 H          21.5486    2.8364    4.0046 H     534  UNL534      0.1146
   2137 N          20.9976    3.4012    6.6378 N.3   535  UNL535     -0.3437
   2138 H          20.1120    3.0879    6.2430 H     535  UNL535      0.1146
   2139 H          21.3209    2.6441    7.2384 H     535  UNL535      0.1146
   2140 H          21.6536    3.4416    5.8591 H     535  UNL535      0.1146
   2141 N          21.1506    2.7185    9.2200 N.3   536  UNL536     -0.3437
   2142 H          21.2180    2.3520   10.1684 H     536  UNL536      0.1146
   2143 H          20.1565    2.8526    9.0406 H     536  UNL536      0.1146
   2144 H          21.5589    3.6517    9.2498 H     536  UNL536      0.1146
   2145 N          20.8891    5.4102   -0.3936 N.3   537  UNL537     -0.3437
   2146 H          20.2241    4.8206    0.1049 H     537  UNL537      0.1146
   2147 H          21.4723    5.8425    0.3215 H     537  UNL537      0.1146
   2148 H          21.4986    4.7746   -0.9065 H     537  UNL537      0.1146
   2149 N          20.9163    5.4320    1.8519 N.3   538  UNL538     -0.3437
   2150 H          20.1989    5.0061    2.4370 H     538  UNL538      0.1146
   2151 H          21.6528    5.7361    2.4871 H     538  UNL538      0.1146
   2152 H          21.3160    4.6738    1.3009 H     538  UNL538      0.1146
   2153 N          20.9843    5.3858    4.0393 N.3   539  UNL539     -0.3437
   2154 H          20.2320    4.9847    4.5974 H     539  UNL539      0.1146
   2155 H          21.5874    5.8805    4.6950 H     539  UNL539      0.1146
   2156 H          21.5304    4.5970    3.6958 H     539  UNL539      0.1146
   2157 N          21.1023    5.5021    6.4409 N.3   540  UNL540     -0.3437
   2158 H          20.1484    5.1500    6.3745 H     540  UNL540      0.1146
   2159 H          21.4300    5.2515    7.3727 H     540  UNL540      0.1146
   2160 H          21.6534    4.9444    5.7901 H     540  UNL540      0.1146
   2161 N          20.4196    5.3845    9.6566 N.3   541  UNL541     -0.3437
   2162 H          20.1662    4.4129    9.8306 H     541  UNL541      0.1146
   2163 H          21.3863    5.3693    9.3346 H     541  UNL541      0.1146
   2164 H          19.8619    5.6813    8.8571 H     541  UNL541      0.1146
   2165 N          20.7393    7.3002   -0.4551 N.3   542  UNL542     -0.3437
   2166 H          20.2179    6.6852    0.1679 H     542  UNL542      0.1146
   2167 H          21.0372    8.0906    0.1150 H     542  UNL542      0.1146
   2168 H          21.5895    6.7954   -0.7014 H     542  UNL542      0.1146
   2169 N          20.9689    7.6293    2.0075 N.3   543  UNL543     -0.3437
   2170 H          20.1324    7.1208    1.7246 H     543  UNL543      0.1146
   2171 H          21.3295    7.1431    2.8272 H     543  UNL543      0.1146
   2172 H          21.6532    7.4781    1.2677 H     543  UNL543      0.1146
   2173 N          20.6920    7.5950    4.4103 N.3   544  UNL544     -0.3437
   2174 H          20.2936    6.8021    4.9112 H     544  UNL544      0.1146
   2175 H          21.6506    7.3323    4.1857 H     544  UNL544      0.1146
   2176 H          20.1979    7.6420    3.5204 H     544  UNL544      0.1146
   2177 N          20.9912    7.3121    6.6917 N.3   545  UNL545     -0.3437
   2178 H          20.1113    7.5587    6.2409 H     545  UNL545      0.1146
   2179 H          21.6366    7.0776    5.9388 H     545  UNL545      0.1146
   2180 H          21.3450    8.1729    7.1069 H     545  UNL545      0.1146
   2181 N          21.0052    7.7746    9.1290 N.3   546  UNL546     -0.3437
   2182 H          20.0894    7.3776    9.3344 H     546  UNL546      0.1146
   2183 H          21.4490    7.9385   10.0316 H     546  UNL546      0.1146
   2184 H          21.5405    7.0305    8.6839 H     546  UNL546      0.1146
   2185 N          20.2488    9.5809    0.1257 N.3   547  UNL547     -0.3437
   2186 H          19.8795   10.5263    0.0342 H     547  UNL547      0.1146
   2187 H          19.5944    8.9748   -0.3671 H     547  UNL547      0.1146
   2188 H          21.1114    9.5626   -0.4165 H     547  UNL547      0.1146
   2189 N          21.0490    9.8715    2.3169 N.3   548  UNL548     -0.3437
   2190 H          20.0768    9.6028    2.1720 H     548  UNL548      0.1146
   2191 H          21.4501    9.1584    2.9243 H     548  UNL548      0.1146
   2192 H          21.5082    9.7619    1.4138 H     548  UNL548      0.1146
   2193 N          20.3065    9.9933    4.2597 N.3   549  UNL549     -0.3437
   2194 H          20.2287    9.0757    3.8234 H     549  UNL549      0.1146
   2195 H          21.3038   10.1609    4.3854 H     549  UNL549      0.1146
   2196 H          19.9951   10.6647    3.5592 H     549  UNL549      0.1146
   2197 N          20.8552    9.7529    6.1171 N.3   550  UNL550     -0.3437
   2198 H          20.3001    9.2657    6.8191 H     550  UNL550      0.1146
   2199 H          21.5104   10.3380    6.6336 H     550  UNL550      0.1146
   2200 H          21.4184    9.0380    5.6586 H     550  UNL550      0.1146
   2201 N          21.1560   10.1109    8.5879 N.3   551  UNL551     -0.3437
   2202 H          20.2122   10.1244    8.2040 H     551  UNL551      0.1146
   2203 H          21.0637    9.7849    9.5490 H     551  UNL551      0.1146
   2204 H          21.6521    9.3744    8.0881 H     551  UNL551      0.1146
   2205 N          20.9442   11.9953   -0.3499 N.3   552  UNL552     -0.3437
   2206 H          20.3073   12.2479    0.4044 H     552  UNL552      0.1146
   2207 H          21.6280   12.7488   -0.4042 H     552  UNL552      0.1146
   2208 H          21.4546   11.1758   -0.0240 H     552  UNL552      0.1146
   2209 N          20.8588   11.9954    2.1758 N.3   553  UNL553     -0.3437
   2210 H          20.1526   12.6438    1.8303 H     553  UNL553      0.1146
   2211 H          21.1690   11.4603    1.3659 H     553  UNL553      0.1146
   2212 H          21.6537   12.5684    2.4550 H     553  UNL553      0.1146
   2213 N          21.0437   12.2102    3.9486 N.3   554  UNL554     -0.3437
   2214 H          20.0782   11.9935    4.1919 H     554  UNL554      0.1146
   2215 H          21.5293   12.3594    4.8320 H     554  UNL554      0.1146
   2216 H          21.4330   11.3547    3.5552 H     554  UNL554      0.1146
   2217 N          20.5749   12.2652    6.2569 N.3   555  UNL555     -0.3437
   2218 H          20.1728   11.3292    6.2342 H     555  UNL555      0.1146
   2219 H          20.2559   12.6869    7.1281 H     555  UNL555      0.1146
   2220 H          21.5805   12.1365    6.3590 H     555  UNL555      0.1146
   2221 N          20.4147   11.8374    9.8011 N.3   556  UNL556     -0.3437
   2222 H          21.3539   11.9933   10.1643 H     556  UNL556      0.1146
   2223 H          19.8421   12.5964   10.1680 H     556  UNL556      0.1146
   2224 H          20.4733   11.9908    8.7955 H     556  UNL556      0.1146
   2225 N          20.7916   14.2629    0.1387 N.3   557  UNL557     -0.3437
   2226 H          20.6053   13.8648   -0.7806 H     557  UNL557      0.1146
   2227 H          21.0574   13.4805    0.7350 H     557  UNL557      0.1146
   2228 H          21.6296   14.8330    0.0333 H     557  UNL557      0.1146
   2229 N          20.9486   14.1511    2.1154 N.3   558  UNL558     -0.3437
   2230 H          20.1535   14.7884    2.1258 H     558  UNL558      0.1146
   2231 H          21.6532   14.5908    1.5249 H     558  UNL558      0.1146
   2232 H          21.3287   14.1608    3.0608 H     558  UNL558      0.1146
   2233 N          20.3612   13.8860    4.5088 N.3   559  UNL559     -0.3437
   2234 H          20.0830   13.6460    3.5583 H     559  UNL559      0.1146
   2235 H          21.3276   14.2034    4.4469 H     559  UNL559      0.1146
   2236 H          19.8122   14.7057    4.7636 H     559  UNL559      0.1146
   2237 N          21.0715   14.4436    6.3873 N.3   560  UNL560     -0.3437
   2238 H          20.1049   14.1452    6.2649 H     560  UNL560      0.1146
   2239 H          21.2630   14.3730    7.3857 H     560  UNL560      0.1146
   2240 H          21.6447   13.7294    5.9403 H     560  UNL560      0.1146
   2241 N          21.1156   13.9772    9.2193 N.3   561  UNL561     -0.3437
   2242 H          21.3971   13.7360   10.1684 H     561  UNL561      0.1146
   2243 H          20.1002   14.0607    9.2400 H     561  UNL561      0.1146
   2244 H          21.4712   14.9172    9.0511 H     561  UNL561      0.1146
   2245 N          20.6436   16.3714   -0.2377 N.3   562  UNL562     -0.3437
   2246 H          20.5707   15.9019    0.6638 H     562  UNL562      0.1146
   2247 H          21.4166   17.0296   -0.1499 H     562  UNL562      0.1146
   2248 H          20.9532   15.6615   -0.8999 H     562  UNL562      0.1146
   2249 N          20.9787   16.8587    2.4121 N.3   563  UNL563     -0.3437
   2250 H          20.1241   16.8221    1.8582 H     563  UNL563      0.1146
   2251 H          21.3285   15.9025    2.4524 H     563  UNL563      0.1146
   2252 H          21.6528   17.3811    1.8543 H     563  UNL563      0.1146
   2253 N          20.4360   16.3043    4.3805 N.3   564  UNL564     -0.3437
   2254 H          20.3458   15.5730    3.6767 H     564  UNL564      0.1146
   2255 H          21.4361   16.4236    4.5351 H     564  UNL564      0.1146
   2256 H          20.1162   17.1634    3.9354 H     564  UNL564      0.1146
   2257 N          20.9091   16.8519    6.5812 N.3   565  UNL565     -0.3437
   2258 H          20.2116   16.2354    6.1668 H     565  UNL565      0.1146
   2259 H          21.6537   16.2451    6.9215 H     565  UNL565      0.1146
   2260 H          21.3098   17.3820    5.8087 H     565  UNL565      0.1146
   2261 N          20.1758   16.7167    9.2500 N.3   566  UNL566     -0.3437
   2262 H          20.1135   15.7145    9.4234 H     566  UNL566      0.1146
   2263 H          20.2002   17.1595   10.1675 H     566  UNL566      0.1146
   2264 H          21.0944   16.8738    8.8379 H     566  UNL566      0.1146
   2265 N          20.9123   18.8759   -0.1134 N.3   567  UNL567     -0.3437
   2266 H          20.1852   18.1953   -0.3289 H     567  UNL567      0.1146
   2267 H          21.5424   18.4158    0.5421 H     567  UNL567      0.1146
   2268 H          21.4442   19.0006   -0.9736 H     567  UNL567      0.1146
   2269 N          20.6002   19.1268    2.1139 N.3   568  UNL568     -0.3437
   2270 H          20.1430   18.2303    2.2736 H     568  UNL568      0.1146
   2271 H          21.5875   18.9174    1.9728 H     568  UNL568      0.1146
   2272 H          20.2534   19.4631    1.2167 H     568  UNL568      0.1146
   2273 N          20.8559   18.7165    3.9682 N.3   569  UNL569     -0.3437
   2274 H          20.2967   18.3975    4.7581 H     569  UNL569      0.1146
   2275 H          21.4732   19.4396    4.3349 H     569  UNL569      0.1146
   2276 H          21.4583   17.9342    3.7164 H     569  UNL569      0.1146
   2277 N          20.9938   19.1485    6.5953 N.3   570  UNL570     -0.3437
   2278 H          20.1141   18.7659    6.2515 H     570  UNL570      0.1146
   2279 H          21.3224   18.4995    7.3089 H     570  UNL570      0.1146
   2280 H          21.6537   19.0738    5.8225 H     570  UNL570      0.1146
   2281 N          17.9461   18.9137    9.1548 N.3   571  UNL571     -0.3437
   2282 H          17.6196   18.5859   10.0626 H     571  UNL571      0.1146
   2283 H          18.8185   19.4096    9.3324 H     571  UNL571      0.1146
   2284 H          18.1999   18.0785    8.6291 H     571  UNL571      0.1146
   2285 N          21.1330   21.4281   -0.1161 N.3   572  UNL572     -0.3437
   2286 H          21.6532   20.9160    0.5949 H     572  UNL572      0.1146
   2287 H          20.4437   20.7746   -0.4851 H     572  UNL572      0.1146
   2288 H          20.6041   22.1422    0.3826 H     572  UNL572      0.1146
   2289 N          20.7438   21.0376    2.1936 N.3   573  UNL573     -0.3437
   2290 H          20.2255   20.9208    1.3240 H     573  UNL573      0.1146
   2291 H          21.6180   20.5289    2.0700 H     573  UNL573      0.1146
   2292 H          20.9968   22.0237    2.2394 H     573  UNL573      0.1146
   2293 N          20.8569   21.2610    3.9253 N.3   574  UNL574     -0.3437
   2294 H          20.3306   20.5755    4.4652 H     574  UNL574      0.1146
   2295 H          21.2443   21.9154    4.6037 H     574  UNL574      0.1146
   2296 H          21.6524   20.7591    3.5334 H     574  UNL574      0.1146
   2297 N          21.1086   21.2965    6.4731 N.3   575  UNL575     -0.3437
   2298 H          20.1481   20.9739    6.3647 H     575  UNL575      0.1146
   2299 H          21.4252   20.9385    7.3731 H     575  UNL575      0.1146
   2300 H          21.6523   20.8020    5.7673 H     575  UNL575      0.1146
   2301 N          20.8924   18.9064    9.2062 N.3   576  UNL576     -0.3437
   2302 H          20.2436   19.1698    9.9465 H     576  UNL576      0.1146
   2303 H          21.2943   19.7772    8.8619 H     576  UNL576      0.1146
   2304 H          21.6537   18.4075    9.6643 H     576  UNL576      0.1146
   2305 N          20.1009   24.4424    0.0337 N.3   577  UNL577     -0.3437
   2306 H          19.8386   24.3436    1.0134 H     577  UNL577      0.1146
   2307 H          21.1189   24.4023    0.0100 H     577  UNL577      0.1146
   2308 H          19.7757   23.5958   -0.4309 H     577  UNL577      0.1146
   2309 N          21.5437   23.8832    2.0923 N.3   578  UNL578     -0.3437
   2310 H          20.6064   23.6736    2.4325 H     578  UNL578      0.1146
   2311 H          21.6510   23.3603    1.2243 H     578  UNL578      0.1146
   2312 H          21.5330   24.8672    1.8278 H     578  UNL578      0.1146
   2313 N          20.5494   24.5413    4.2695 N.3   579  UNL579     -0.3437
   2314 H          20.5361   23.5256    4.1895 H     579  UNL579      0.1146
   2315 H          21.5085   24.8258    4.0754 H     579  UNL579      0.1146
   2316 H          19.9901   24.8916    3.4932 H     579  UNL579      0.1146
   2317 N          20.7982   23.7874    6.3762 N.3   580  UNL580     -0.3437
   2318 H          21.0099   23.4219    7.3035 H     580  UNL580      0.1146
   2319 H          21.6527   23.6825    5.8311 H     580  UNL580      0.1146
   2320 H          20.1233   23.1425    5.9674 H     580  UNL580      0.1146
   2321 N          20.4119   21.5592    9.3572 N.3   581  UNL581     -0.3437
   2322 H          19.7267   22.2736    9.5991 H     581  UNL581      0.1146
   2323 H          20.4337   20.9128   10.1447 H     581  UNL581      0.1146
   2324 H          20.0118   21.0387    8.5778 H     581  UNL581      0.1146
@<TRIPOS>BOND
     1     1     2    1
     2     1     3    1
     3     1     4    1
     4     5     6    1
     5     5     7    1
     6     5     8    1
     7     9    10    1
     8     9    11    1
     9     9    12    1
    10    13    14    1
    11    13    15    1
    12    13    16    1
    13    17    18    1
    14    17    19    1
    15    17    20    1
    16    21    22    1
    17    21    23    1
    18    21    24    1
    19    25    26    1
    20    25    27    1
    21    25    28    1
    22    29    30    1
    23    29    31    1
    24    29    32    1
    25    33    34    1
    26    33    35    1
    27    33    36    1
    28    37    38    1
    29    37    39    1
    30    37    40    1
    31    41    42    1
    32    41    43    1
    33    41    44    1
    34    45    46    1
    35    45    47    1
    36    45    48    1
    37    49    50    1
    38    49    51    1
    39    49    52    1
    40    53    54    1
    41    53    55    1
    42    53    56    1
    43    57    58    1
    44    57    59    1
    45    57    60    1
    46    61    62    1
    47    61    63    1
    48    61    64    1
    49    65    66    1
    50    65    67    1
    51    65    68    1
    52    69    70    1
    53    69    71    1
    54    69    72    1
    55    73    74    1
    56    73    75    1
    57    73    76    1
    58    77    78    1
    59    77    79    1
    60    77    80    1
    61    81    82    1
    62    81    83    1
    63    81    84    1
    64    85    86    1
    65    85    87    1
    66    85    88    1
    67    89    90    1
    68    89    91    1
    69    89    92    1
    70    93    94    1
    71    93    95    1
    72    93    96    1
    73    97    98    1
    74    97    99    1
    75    97   100    1
    76   101   102    1
    77   101   103    1
    78   101   104    1
    79   105   106    1
    80   105   107    1
    81   105   108    1
    82   109   110    1
    83   109   111    1
    84   109   112    1
    85   113   114    1
    86   113   115    1
    87   113   116    1
    88   117   118    1
    89   117   119    1
    90   117   120    1
    91   121   122    1
    92   121   123    1
    93   121   124    1
    94   125   126    1
    95   125   127    1
    96   125   128    1
    97   129   130    1
    98   129   131    1
    99   129   132    1
   100   133   134    1
   101   133   135    1
   102   133   136    1
   103   137   138    1
   104   137   139    1
   105   137   140    1
   106   141   142    1
   107   141   143    1
   108   141   144    1
   109   145   146    1
   110   145   147    1
   111   145   148    1
   112   149   150    1
   113   149   151    1
   114   149   152    1
   115   153   154    1
   116   153   155    1
   117   153   156    1
   118   157   158    1
   119   157   159    1
   120   157   160    1
   121   161   162    1
   122   161   163    1
   123   161   164    1
   124   165   166    1
   125   165   167    1
   126   165   168    1
   127   169   170    1
   128   169   171    1
   129   169   172    1
   130   173   174    1
   131   173   175    1
   132   173   176    1
   133   177   178    1
   134   177   179    1
   135   177   180    1
   136   181   182    1
   137   181   183    1
   138   181   184    1
   139   185   186    1
   140   185   187    1
   141   185   188    1
   142   189   190    1
   143   189   191    1
   144   189   192    1
   145   193   194    1
   146   193   195    1
   147   193   196    1
   148   197   198    1
   149   197   199    1
   150   197   200    1
   151   201   202    1
   152   201   203    1
   153   201   204    1
   154   205   206    1
   155   205   207    1
   156   205   208    1
   157   209   210    1
   158   209   211    1
   159   209   212    1
   160   213   214    1
   161   213   215    1
   162   213   216    1
   163   217   218    1
   164   217   219    1
   165   217   220    1
   166   221   222    1
   167   221   223    1
   168   221   224    1
   169   225   226    1
   170   225   227    1
   171   225   228    1
   172   229   230    1
   173   229   231    1
   174   229   232    1
   175   233   234    1
   176   233   235    1
   177   233   236    1
   178   237   238    1
   179   237   239    1
   180   237   240    1
   181   241   242    1
   182   241   243    1
   183   241   244    1
   184   245   246    1
   185   245   247    1
   186   245   248    1
   187   249   250    1
   188   249   251    1
   189   249   252    1
   190   253   254    1
   191   253   255    1
   192   253   256    1
   193   257   258    1
   194   257   259    1
   195   257   260    1
   196   261   262    1
   197   261   263    1
   198   261   264    1
   199   265   266    1
   200   265   267    1
   201   265   268    1
   202   269   270    1
   203   269   271    1
   204   269   272    1
   205   273   274    1
   206   273   275    1
   207   273   276    1
   208   277   278    1
   209   277   279    1
   210   277   280    1
   211   281   282    1
   212   281   283    1
   213   281   284    1
   214   285   286    1
   215   285   287    1
   216   285   288    1
   217   289   290    1
   218   289   291    1
   219   289   292    1
   220   293   294    1
   221   293   295    1
   222   293   296    1
   223   297   298    1
   224   297   299    1
   225   297   300    1
   226   301   302    1
   227   301   303    1
   228   301   304    1
   229   305   306    1
   230   305   307    1
   231   305   308    1
   232   309   310    1
   233   309   311    1
   234   309   312    1
   235   313   314    1
   236   313   315    1
   237   313   316    1
   238   317   318    1
   239   317   319    1
   240   317   320    1
   241   321   322    1
   242   321   323    1
   243   321   324    1
   244   325   326    1
   245   325   327    1
   246   325   328    1
   247   329   330    1
   248   329   331    1
   249   329   332    1
   250   333   334    1
   251   333   335    1
   252   333   336    1
   253   337   338    1
   254   337   339    1
   255   337   340    1
   256   341   342    1
   257   341   343    1
   258   341   344    1
   259   345   346    1
   260   345   347    1
   261   345   348    1
   262   349   350    1
   263   349   351    1
   264   349   352    1
   265   353   354    1
   266   353   355    1
   267   353   356    1
   268   357   358    1
   269   357   359    1
   270   357   360    1
   271   361   362    1
   272   361   363    1
   273   361   364    1
   274   365   366    1
   275   365   367    1
   276   365   368    1
   277   369   370    1
   278   369   371    1
   279   369   372    1
   280   373   374    1
   281   373   375    1
   282   373   376    1
   283   377   378    1
   284   377   379    1
   285   377   380    1
   286   381   382    1
   287   381   383    1
   288   381   384    1
   289   385   386    1
   290   385   387    1
   291   385   388    1
   292   389   390    1
   293   389   391    1
   294   389   392    1
   295   393   394    1
   296   393   395    1
   297   393   396    1
   298   397   398    1
   299   397   399    1
   300   397   400    1
   301   401   402    1
   302   401   403    1
   303   401   404    1
   304   405   406    1
   305   405   407    1
   306   405   408    1
   307   409   410    1
   308   409   411    1
   309   409   412    1
   310   413   414    1
   311   413   415    1
   312   413   416    1
   313   417   418    1
   314   417   419    1
   315   417   420    1
   316   421   422    1
   317   421   423    1
   318   421   424    1
   319   425   426    1
   320   425   427    1
   321   425   428    1
   322   429   430    1
   323   429   431    1
   324   429   432    1
   325   433   434    1
   326   433   435    1
   327   433   436    1
   328   437   438    1
   329   437   439    1
   330   437   440    1
   331   441   442    1
   332   441   443    1
   333   441   444    1
   334   445   446    1
   335   445   447    1
   336   445   448    1
   337   449   450    1
   338   449   451    1
   339   449   452    1
   340   453   454    1
   341   453   455    1
   342   453   456    1
   343   457   458    1
   344   457   459    1
   345   457   460    1
   346   461   462    1
   347   461   463    1
   348   461   464    1
   349   465   466    1
   350   465   467    1
   351   465   468    1
   352   469   470    1
   353   469   471    1
   354   469   472    1
   355   473   474    1
   356   473   475    1
   357   473   476    1
   358   477   478    1
   359   477   479    1
   360   477   480    1
   361   481   482    1
   362   481   483    1
   363   481   484    1
   364   485   486    1
   365   485   487    1
   366   485   488    1
   367   489   490    1
   368   489   491    1
   369   489   492    1
   370   493   494    1
   371   493   495    1
   372   493   496    1
   373   497   498    1
   374   497   499    1
   375   497   500    1
   376   501   502    1
   377   501   503    1
   378   501   504    1
   379   505   506    1
   380   505   507    1
   381   505   508    1
   382   509   510    1
   383   509   511    1
   384   509   512    1
   385   513   514    1
   386   513   515    1
   387   513   516    1
   388   517   518    1
   389   517   519    1
   390   517   520    1
   391   521   522    1
   392   521   523    1
   393   521   524    1
   394   525   526    1
   395   525   527    1
   396   525   528    1
   397   529   530    1
   398   529   531    1
   399   529   532    1
   400   533   534    1
   401   533   535    1
   402   533   536    1
   403   537   538    1
   404   537   539    1
   405   537   540    1
   406   541   542    1
   407   541   543    1
   408   541   544    1
   409   545   546    1
   410   545   547    1
   411   545   548    1
   412   549   550    1
   413   549   551    1
   414   549   552    1
   415   553   554    1
   416   553   555    1
   417   553   556    1
   418   557   558    1
   419   557   559    1
   420   557   560    1
   421   561   562    1
   422   561   563    1
   423   561   564    1
   424   565   566    1
   425   565   567    1
   426   565   568    1
   427   569   570    1
   428   569   571    1
   429   569   572    1
   430   573   574    1
   431   573   575    1
   432   573   576    1
   433   577   578    1
   434   577   579    1
   435   577   580    1
   436   581   582    1
   437   581   583    1
   438   581   584    1
   439   585   586    1
   440   585   587    1
   441   585   588    1
   442   589   590    1
   443   589   591    1
   444   589   592    1
   445   593   594    1
   446   593   595    1
   447   593   596    1
   448   597   598    1
   449   597   599    1
   450   597   600    1
   451   601   602    1
   452   601   603    1
   453   601   604    1
   454   605   606    1
   455   605   607    1
   456   605   608    1
   457   609   610    1
   458   609   611    1
   459   609   612    1
   460   613   614    1
   461   613   615    1
   462   613   616    1
   463   617   618    1
   464   617   619    1
   465   617   620    1
   466   621   622    1
   467   621   623    1
   468   621   624    1
   469   625   626    1
   470   625   627    1
   471   625   628    1
   472   629   630    1
   473   629   631    1
   474   629   632    1
   475   633   634    1
   476   633   635    1
   477   633   636    1
   478   637   638    1
   479   637   639    1
   480   637   640    1
   481   641   642    1
   482   641   643    1
   483   641   644    1
   484   645   646    1
   485   645   647    1
   486   645   648    1
   487   649   650    1
   488   649   651    1
   489   649   652    1
   490   653   654    1
   491   653   655    1
   492   653   656    1
   493   657   658    1
   494   657   659    1
   495   657   660    1
   496   661   662    1
   497   661   663    1
   498   661   664    1
   499   665   666    1
   500   665   667    1
   501   665   668    1
   502   669   670    1
   503   669   671    1
   504   669   672    1
   505   673   674    1
   506   673   675    1
   507   673   676    1
   508   677   678    1
   509   677   679    1
   510   677   680    1
   511   681   682    1
   512   681   683    1
   513   681   684    1
   514   685   686    1
   515   685   687    1
   516   685   688    1
   517   689   690    1
   518   689   691    1
   519   689   692    1
   520   693   694    1
   521   693   695    1
   522   693   696    1
   523   697   698    1
   524   697   699    1
   525   697   700    1
   526   701   702    1
   527   701   703    1
   528   701   704    1
   529   705   706    1
   530   705   707    1
   531   705   708    1
   532   709   710    1
   533   709   711    1
   534   709   712    1
   535   713   714    1
   536   713   715    1
   537   713   716    1
   538   717   718    1
   539   717   719    1
   540   717   720    1
   541   721   722    1
   542   721   723    1
   543   721   724    1
   544   725   726    1
   545   725   727    1
   546   725   728    1
   547   729   730    1
   548   729   731    1
   549   729   732    1
   550   733   734    1
   551   733   735    1
   552   733   736    1
   553   737   738    1
   554   737   739    1
   555   737   740    1
   556   741   742    1
   557   741   743    1
   558   741   744    1
   559   745   746    1
   560   745   747    1
   561   745   748    1
   562   749   750    1
   563   749   751    1
   564   749   752    1
   565   753   754    1
   566   753   755    1
   567   753   756    1
   568   757   758    1
   569   757   759    1
   570   757   760    1
   571   761   762    1
   572   761   763    1
   573   761   764    1
   574   765   766    1
   575   765   767    1
   576   765   768    1
   577   769   770    1
   578   769   771    1
   579   769   772    1
   580   773   774    1
   581   773   775    1
   582   773   776    1
   583   777   778    1
   584   777   779    1
   585   777   780    1
   586   781   782    1
   587   781   783    1
   588   781   784    1
   589   785   786    1
   590   785   787    1
   591   785   788    1
   592   789   790    1
   593   789   791    1
   594   789   792    1
   595   793   794    1
   596   793   795    1
   597   793   796    1
   598   797   798    1
   599   797   799    1
   600   797   800    1
   601   801   802    1
   602   801   803    1
   603   801   804    1
   604   805   806    1
   605   805   807    1
   606   805   808    1
   607   809   810    1
   608   809   811    1
   609   809   812    1
   610   813   814    1
   611   813   815    1
   612   813   816    1
   613   817   818    1
   614   817   819    1
   615   817   820    1
   616   821   822    1
   617   821   823    1
   618   821   824    1
   619   825   826    1
   620   825   827    1
   621   825   828    1
   622   829   830    1
   623   829   831    1
   624   829   832    1
   625   833   834    1
   626   833   835    1
   627   833   836    1
   628   837   838    1
   629   837   839    1
   630   837   840    1
   631   841   842    1
   632   841   843    1
   633   841   844    1
   634   845   846    1
   635   845   847    1
   636   845   848    1
   637   849   850    1
   638   849   851    1
   639   849   852    1
   640   853   854    1
   641   853   855    1
   642   853   856    1
   643   857   858    1
   644   857   859    1
   645   857   860    1
   646   861   862    1
   647   861   863    1
   648   861   864    1
   649   865   866    1
   650   865   867    1
   651   865   868    1
   652   869   870    1
   653   869   871    1
   654   869   872    1
   655   873   874    1
   656   873   875    1
   657   873   876    1
   658   877   878    1
   659   877   879    1
   660   877   880    1
   661   881   882    1
   662   881   883    1
   663   881   884    1
   664   885   886    1
   665   885   887    1
   666   885   888    1
   667   889   890    1
   668   889   891    1
   669   889   892    1
   670   893   894    1
   671   893   895    1
   672   893   896    1
   673   897   898    1
   674   897   899    1
   675   897   900    1
   676   901   902    1
   677   901   903    1
   678   901   904    1
   679   905   906    1
   680   905   907    1
   681   905   908    1
   682   909   910    1
   683   909   911    1
   684   909   912    1
   685   913   914    1
   686   913   915    1
   687   913   916    1
   688   917   918    1
   689   917   919    1
   690   917   920    1
   691   921   922    1
   692   921   923    1
   693   921   924    1
   694   925   926    1
   695   925   927    1
   696   925   928    1
   697   929   930    1
   698   929   931    1
   699   929   932    1
   700   933   934    1
   701   933   935    1
   702   933   936    1
   703   937   938    1
   704   937   939    1
   705   937   940    1
   706   941   942    1
   707   941   943    1
   708   941   944    1
   709   945   946    1
   710   945   947    1
   711   945   948    1
   712   949   950    1
   713   949   951    1
   714   949   952    1
   715   953   954    1
   716   953   955    1
   717   953   956    1
   718   957   958    1
   719   957   959    1
   720   957   960    1
   721   961   962    1
   722   961   963    1
   723   961   964    1
   724   965   966    1
   725   965   967    1
   726   965   968    1
   727   969   970    1
   728   969   971    1
   729   969   972    1
   730   973   974    1
   731   973   975    1
   732   973   976    1
   733   977   978    1
   734   977   979    1
   735   977   980    1
   736   981   982    1
   737   981   983    1
   738   981   984    1
   739   985   986    1
   740   985   987    1
   741   985   988    1
   742   989   990    1
   743   989   991    1
   744   989   992    1
   745   993   994    1
   746   993   995    1
   747   993   996    1
   748   997   998    1
   749   997   999    1
   750   997  1000    1
   751  1001  1002    1
   752  1001  1003    1
   753  1001  1004    1
   754  1005  1006    1
   755  1005  1007    1
   756  1005  1008    1
   757  1009  1010    1
   758  1009  1011    1
   759  1009  1012    1
   760  1013  1014    1
   761  1013  1015    1
   762  1013  1016    1
   763  1017  1018    1
   764  1017  1019    1
   765  1017  1020    1
   766  1021  1022    1
   767  1021  1023    1
   768  1021  1024    1
   769  1025  1026    1
   770  1025  1027    1
   771  1025  1028    1
   772  1029  1030    1
   773  1029  1031    1
   774  1029  1032    1
   775  1033  1034    1
   776  1033  1035    1
   777  1033  1036    1
   778  1037  1038    1
   779  1037  1039    1
   780  1037  1040    1
   781  1041  1042    1
   782  1041  1043    1
   783  1041  1044    1
   784  1045  1046    1
   785  1045  1047    1
   786  1045  1048    1
   787  1049  1050    1
   788  1049  1051    1
   789  1049  1052    1
   790  1053  1054    1
   791  1053  1055    1
   792  1053  1056    1
   793  1057  1058    1
   794  1057  1059    1
   795  1057  1060    1
   796  1061  1062    1
   797  1061  1063    1
   798  1061  1064    1
   799  1065  1066    1
   800  1065  1067    1
   801  1065  1068    1
   802  1069  1070    1
   803  1069  1071    1
   804  1069  1072    1
   805  1073  1074    1
   806  1073  1075    1
   807  1073  1076    1
   808  1077  1078    1
   809  1077  1079    1
   810  1077  1080    1
   811  1081  1082    1
   812  1081  1083    1
   813  1081  1084    1
   814  1085  1086    1
   815  1085  1087    1
   816  1085  1088    1
   817  1089  1090    1
   818  1089  1091    1
   819  1089  1092    1
   820  1093  1094    1
   821  1093  1095    1
   822  1093  1096    1
   823  1097  1098    1
   824  1097  1099    1
   825  1097  1100    1
   826  1101  1102    1
   827  1101  1103    1
   828  1101  1104    1
   829  1105  1106    1
   830  1105  1107    1
   831  1105  1108    1
   832  1109  1110    1
   833  1109  1111    1
   834  1109  1112    1
   835  1113  1114    1
   836  1113  1115    1
   837  1113  1116    1
   838  1117  1118    1
   839  1117  1119    1
   840  1117  1120    1
   841  1121  1122    1
   842  1121  1123    1
   843  1121  1124    1
   844  1125  1126    1
   845  1125  1127    1
   846  1125  1128    1
   847  1129  1130    1
   848  1129  1131    1
   849  1129  1132    1
   850  1133  1134    1
   851  1133  1135    1
   852  1133  1136    1
   853  1137  1138    1
   854  1137  1139    1
   855  1137  1140    1
   856  1141  1142    1
   857  1141  1143    1
   858  1141  1144    1
   859  1145  1146    1
   860  1145  1147    1
   861  1145  1148    1
   862  1149  1150    1
   863  1149  1151    1
   864  1149  1152    1
   865  1153  1154    1
   866  1153  1155    1
   867  1153  1156    1
   868  1157  1158    1
   869  1157  1159    1
   870  1157  1160    1
   871  1161  1162    1
   872  1161  1163    1
   873  1161  1164    1
   874  1165  1166    1
   875  1165  1167    1
   876  1165  1168    1
   877  1169  1170    1
   878  1169  1171    1
   879  1169  1172    1
   880  1173  1174    1
   881  1173  1175    1
   882  1173  1176    1
   883  1177  1178    1
   884  1177  1179    1
   885  1177  1180    1
   886  1181  1182    1
   887  1181  1183    1
   888  1181  1184    1
   889  1185  1186    1
   890  1185  1187    1
   891  1185  1188    1
   892  1189  1190    1
   893  1189  1191    1
   894  1189  1192    1
   895  1193  1194    1
   896  1193  1195    1
   897  1193  1196    1
   898  1197  1198    1
   899  1197  1199    1
   900  1197  1200    1
   901  1201  1202    1
   902  1201  1203    1
   903  1201  1204    1
   904  1205  1206    1
   905  1205  1207    1
   906  1205  1208    1
   907  1209  1210    1
   908  1209  1211    1
   909  1209  1212    1
   910  1213  1214    1
   911  1213  1215    1
   912  1213  1216    1
   913  1217  1218    1
   914  1217  1219    1
   915  1217  1220    1
   916  1221  1222    1
   917  1221  1223    1
   918  1221  1224    1
   919  1225  1226    1
   920  1225  1227    1
   921  1225  1228    1
   922  1229  1230    1
   923  1229  1231    1
   924  1229  1232    1
   925  1233  1234    1
   926  1233  1235    1
   927  1233  1236    1
   928  1237  1238    1
   929  1237  1239    1
   930  1237  1240    1
   931  1241  1242    1
   932  1241  1243    1
   933  1241  1244    1
   934  1245  1246    1
   935  1245  1247    1
   936  1245  1248    1
   937  1249  1250    1
   938  1249  1251    1
   939  1249  1252    1
   940  1253  1254    1
   941  1253  1255    1
   942  1253  1256    1
   943  1257  1258    1
   944  1257  1259    1
   945  1257  1260    1
   946  1261  1262    1
   947  1261  1263    1
   948  1261  1264    1
   949  1265  1266    1
   950  1265  1267    1
   951  1265  1268    1
   952  1269  1270    1
   953  1269  1271    1
   954  1269  1272    1
   955  1273  1274    1
   956  1273  1275    1
   957  1273  1276    1
   958  1277  1278    1
   959  1277  1279    1
   960  1277  1280    1
   961  1281  1282    1
   962  1281  1283    1
   963  1281  1284    1
   964  1285  1286    1
   965  1285  1287    1
   966  1285  1288    1
   967  1289  1290    1
   968  1289  1291    1
   969  1289  1292    1
   970  1293  1294    1
   971  1293  1295    1
   972  1293  1296    1
   973  1297  1298    1
   974  1297  1299    1
   975  1297  1300    1
   976  1301  1302    1
   977  1301  1303    1
   978  1301  1304    1
   979  1305  1306    1
   980  1305  1307    1
   981  1305  1308    1
   982  1309  1310    1
   983  1309  1311    1
   984  1309  1312    1
   985  1313  1314    1
   986  1313  1315    1
   987  1313  1316    1
   988  1317  1318    1
   989  1317  1319    1
   990  1317  1320    1
   991  1321  1322    1
   992  1321  1323    1
   993  1321  1324    1
   994  1325  1326    1
   995  1325  1327    1
   996  1325  1328    1
   997  1329  1330    1
   998  1329  1331    1
   999  1329  1332    1
  1000  1333  1334    1
  1001  1333  1335    1
  1002  1333  1336    1
  1003  1337  1338    1
  1004  1337  1339    1
  1005  1337  1340    1
  1006  1341  1342    1
  1007  1341  1343    1
  1008  1341  1344    1
  1009  1345  1346    1
  1010  1345  1347    1
  1011  1345  1348    1
  1012  1349  1350    1
  1013  1349  1351    1
  1014  1349  1352    1
  1015  1353  1354    1
  1016  1353  1355    1
  1017  1353  1356    1
  1018  1357  1358    1
  1019  1357  1359    1
  1020  1357  1360    1
  1021  1361  1362    1
  1022  1361  1363    1
  1023  1361  1364    1
  1024  1365  1366    1
  1025  1365  1367    1
  1026  1365  1368    1
  1027  1369  1370    1
  1028  1369  1371    1
  1029  1369  1372    1
  1030  1373  1374    1
  1031  1373  1375    1
  1032  1373  1376    1
  1033  1377  1378    1
  1034  1377  1379    1
  1035  1377  1380    1
  1036  1381  1382    1
  1037  1381  1383    1
  1038  1381  1384    1
  1039  1385  1386    1
  1040  1385  1387    1
  1041  1385  1388    1
  1042  1389  1390    1
  1043  1389  1391    1
  1044  1389  1392    1
  1045  1393  1394    1
  1046  1393  1395    1
  1047  1393  1396    1
  1048  1397  1398    1
  1049  1397  1399    1
  1050  1397  1400    1
  1051  1401  1402    1
  1052  1401  1403    1
  1053  1401  1404    1
  1054  1405  1406    1
  1055  1405  1407    1
  1056  1405  1408    1
  1057  1409  1410    1
  1058  1409  1411    1
  1059  1409  1412    1
  1060  1413  1414    1
  1061  1413  1415    1
  1062  1413  1416    1
  1063  1417  1418    1
  1064  1417  1419    1
  1065  1417  1420    1
  1066  1421  1422    1
  1067  1421  1423    1
  1068  1421  1424    1
  1069  1425  1426    1
  1070  1425  1427    1
  1071  1425  1428    1
  1072  1429  1430    1
  1073  1429  1431    1
  1074  1429  1432    1
  1075  1433  1434    1
  1076  1433  1435    1
  1077  1433  1436    1
  1078  1437  1438    1
  1079  1437  1439    1
  1080  1437  1440    1
  1081  1441  1442    1
  1082  1441  1443    1
  1083  1441  1444    1
  1084  1445  1446    1
  1085  1445  1447    1
  1086  1445  1448    1
  1087  1449  1450    1
  1088  1449  1451    1
  1089  1449  1452    1
  1090  1453  1454    1
  1091  1453  1455    1
  1092  1453  1456    1
  1093  1457  1458    1
  1094  1457  1459    1
  1095  1457  1460    1
  1096  1461  1462    1
  1097  1461  1463    1
  1098  1461  1464    1
  1099  1465  1466    1
  1100  1465  1467    1
  1101  1465  1468    1
  1102  1469  1470    1
  1103  1469  1471    1
  1104  1469  1472    1
  1105  1473  1474    1
  1106  1473  1475    1
  1107  1473  1476    1
  1108  1477  1478    1
  1109  1477  1479    1
  1110  1477  1480    1
  1111  1481  1482    1
  1112  1481  1483    1
  1113  1481  1484    1
  1114  1485  1486    1
  1115  1485  1487    1
  1116  1485  1488    1
  1117  1489  1490    1
  1118  1489  1491    1
  1119  1489  1492    1
  1120  1493  1494    1
  1121  1493  1495    1
  1122  1493  1496    1
  1123  1497  1498    1
  1124  1497  1499    1
  1125  1497  1500    1
  1126  1501  1502    1
  1127  1501  1503    1
  1128  1501  1504    1
  1129  1505  1506    1
  1130  1505  1507    1
  1131  1505  1508    1
  1132  1509  1510    1
  1133  1509  1511    1
  1134  1509  1512    1
  1135  1513  1514    1
  1136  1513  1515    1
  1137  1513  1516    1
  1138  1517  1518    1
  1139  1517  1519    1
  1140  1517  1520    1
  1141  1521  1522    1
  1142  1521  1523    1
  1143  1521  1524    1
  1144  1525  1526    1
  1145  1525  1527    1
  1146  1525  1528    1
  1147  1529  1530    1
  1148  1529  1531    1
  1149  1529  1532    1
  1150  1533  1534    1
  1151  1533  1535    1
  1152  1533  1536    1
  1153  1537  1538    1
  1154  1537  1539    1
  1155  1537  1540    1
  1156  1541  1542    1
  1157  1541  1543    1
  1158  1541  1544    1
  1159  1545  1546    1
  1160  1545  1547    1
  1161  1545  1548    1
  1162  1549  1550    1
  1163  1549  1551    1
  1164  1549  1552    1
  1165  1553  1554    1
  1166  1553  1555    1
  1167  1553  1556    1
  1168  1557  1558    1
  1169  1557  1559    1
  1170  1557  1560    1
  1171  1561  1562    1
  1172  1561  1563    1
  1173  1561  1564    1
  1174  1565  1566    1
  1175  1565  1567    1
  1176  1565  1568    1
  1177  1569  1570    1
  1178  1569  1571    1
  1179  1569  1572    1
  1180  1573  1574    1
  1181  1573  1575    1
  1182  1573  1576    1
  1183  1577  1578    1
  1184  1577  1579    1
  1185  1577  1580    1
  1186  1581  1582    1
  1187  1581  1583    1
  1188  1581  1584    1
  1189  1585  1586    1
  1190  1585  1587    1
  1191  1585  1588    1
  1192  1589  1590    1
  1193  1589  1591    1
  1194  1589  1592    1
  1195  1593  1594    1
  1196  1593  1595    1
  1197  1593  1596    1
  1198  1597  1598    1
  1199  1597  1599    1
  1200  1597  1600    1
  1201  1601  1602    1
  1202  1601  1603    1
  1203  1601  1604    1
  1204  1605  1606    1
  1205  1605  1607    1
  1206  1605  1608    1
  1207  1609  1610    1
  1208  1609  1611    1
  1209  1609  1612    1
  1210  1613  1614    1
  1211  1613  1615    1
  1212  1613  1616    1
  1213  1617  1618    1
  1214  1617  1619    1
  1215  1617  1620    1
  1216  1621  1622    1
  1217  1621  1623    1
  1218  1621  1624    1
  1219  1625  1626    1
  1220  1625  1627    1
  1221  1625  1628    1
  1222  1629  1630    1
  1223  1629  1631    1
  1224  1629  1632    1
  1225  1633  1634    1
  1226  1633  1635    1
  1227  1633  1636    1
  1228  1637  1638    1
  1229  1637  1639    1
  1230  1637  1640    1
  1231  1641  1642    1
  1232  1641  1643    1
  1233  1641  1644    1
  1234  1645  1646    1
  1235  1645  1647    1
  1236  1645  1648    1
  1237  1649  1650    1
  1238  1649  1651    1
  1239  1649  1652    1
  1240  1653  1654    1
  1241  1653  1655    1
  1242  1653  1656    1
  1243  1657  1658    1
  1244  1657  1659    1
  1245  1657  1660    1
  1246  1661  1662    1
  1247  1661  1663    1
  1248  1661  1664    1
  1249  1665  1666    1
  1250  1665  1667    1
  1251  1665  1668    1
  1252  1669  1670    1
  1253  1669  1671    1
  1254  1669  1672    1
  1255  1673  1674    1
  1256  1673  1675    1
  1257  1673  1676    1
  1258  1677  1678    1
  1259  1677  1679    1
  1260  1677  1680    1
  1261  1681  1682    1
  1262  1681  1683    1
  1263  1681  1684    1
  1264  1685  1686    1
  1265  1685  1687    1
  1266  1685  1688    1
  1267  1689  1690    1
  1268  1689  1691    1
  1269  1689  1692    1
  1270  1693  1694    1
  1271  1693  1695    1
  1272  1693  1696    1
  1273  1697  1698    1
  1274  1697  1699    1
  1275  1697  1700    1
  1276  1701  1702    1
  1277  1701  1703    1
  1278  1701  1704    1
  1279  1705  1706    1
  1280  1705  1707    1
  1281  1705  1708    1
  1282  1709  1710    1
  1283  1709  1711    1
  1284  1709  1712    1
  1285  1713  1714    1
  1286  1713  1715    1
  1287  1713  1716    1
  1288  1717  1718    1
  1289  1717  1719    1
  1290  1717  1720    1
  1291  1721  1722    1
  1292  1721  1723    1
  1293  1721  1724    1
  1294  1725  1726    1
  1295  1725  1727    1
  1296  1725  1728    1
  1297  1729  1730    1
  1298  1729  1731    1
  1299  1729  1732    1
  1300  1733  1734    1
  1301  1733  1735    1
  1302  1733  1736    1
  1303  1737  1738    1
  1304  1737  1739    1
  1305  1737  1740    1
  1306  1741  1742    1
  1307  1741  1743    1
  1308  1741  1744    1
  1309  1745  1746    1
  1310  1745  1747    1
  1311  1745  1748    1
  1312  1749  1750    1
  1313  1749  1751    1
  1314  1749  1752    1
  1315  1753  1754    1
  1316  1753  1755    1
  1317  1753  1756    1
  1318  1757  1758    1
  1319  1757  1759    1
  1320  1757  1760    1
  1321  1761  1762    1
  1322  1761  1763    1
  1323  1761  1764    1
  1324  1765  1766    1
  1325  1765  1767    1
  1326  1765  1768    1
  1327  1769  1770    1
  1328  1769  1771    1
  1329  1769  1772    1
  1330  1773  1774    1
  1331  1773  1775    1
  1332  1773  1776    1
  1333  1777  1778    1
  1334  1777  1779    1
  1335  1777  1780    1
  1336  1781  1782    1
  1337  1781  1783    1
  1338  1781  1784    1
  1339  1785  1786    1
  1340  1785  1787    1
  1341  1785  1788    1
  1342  1789  1790    1
  1343  1789  1791    1
  1344  1789  1792    1
  1345  1793  1794    1
  1346  1793  1795    1
  1347  1793  1796    1
  1348  1797  1798    1
  1349  1797  1799    1
  1350  1797  1800    1
  1351  1801  1802    1
  1352  1801  1803    1
  1353  1801  1804    1
  1354  1805  1806    1
  1355  1805  1807    1
  1356  1805  1808    1
  1357  1809  1810    1
  1358  1809  1811    1
  1359  1809  1812    1
  1360  1813  1814    1
  1361  1813  1815    1
  1362  1813  1816    1
  1363  1817  1818    1
  1364  1817  1819    1
  1365  1817  1820    1
  1366  1821  1822    1
  1367  1821  1823    1
  1368  1821  1824    1
  1369  1825  1826    1
  1370  1825  1827    1
  1371  1825  1828    1
  1372  1829  1830    1
  1373  1829  1831    1
  1374  1829  1832    1
  1375  1833  1834    1
  1376  1833  1835    1
  1377  1833  1836    1
  1378  1837  1838    1
  1379  1837  1839    1
  1380  1837  1840    1
  1381  1841  1842    1
  1382  1841  1843    1
  1383  1841  1844    1
  1384  1845  1846    1
  1385  1845  1847    1
  1386  1845  1848    1
  1387  1849  1850    1
  1388  1849  1851    1
  1389  1849  1852    1
  1390  1853  1854    1
  1391  1853  1855    1
  1392  1853  1856    1
  1393  1857  1858    1
  1394  1857  1859    1
  1395  1857  1860    1
  1396  1861  1862    1
  1397  1861  1863    1
  1398  1861  1864    1
  1399  1865  1866    1
  1400  1865  1867    1
  1401  1865  1868    1
  1402  1869  1870    1
  1403  1869  1871    1
  1404  1869  1872    1
  1405  1873  1874    1
  1406  1873  1875    1
  1407  1873  1876    1
  1408  1877  1878    1
  1409  1877  1879    1
  1410  1877  1880    1
  1411  1881  1882    1
  1412  1881  1883    1
  1413  1881  1884    1
  1414  1885  1886    1
  1415  1885  1887    1
  1416  1885  1888    1
  1417  1889  1890    1
  1418  1889  1891    1
  1419  1889  1892    1
  1420  1893  1894    1
  1421  1893  1895    1
  1422  1893  1896    1
  1423  1897  1898    1
  1424  1897  1899    1
  1425  1897  1900    1
  1426  1901  1902    1
  1427  1901  1903    1
  1428  1901  1904    1
  1429  1905  1906    1
  1430  1905  1907    1
  1431  1905  1908    1
  1432  1909  1910    1
  1433  1909  1911    1
  1434  1909  1912    1
  1435  1913  1914    1
  1436  1913  1915    1
  1437  1913  1916    1
  1438  1917  1918    1
  1439  1917  1919    1
  1440  1917  1920    1
  1441  1921  1922    1
  1442  1921  1923    1
  1443  1921  1924    1
  1444  1925  1926    1
  1445  1925  1927    1
  1446  1925  1928    1
  1447  1929  1930    1
  1448  1929  1931    1
  1449  1929  1932    1
  1450  1933  1934    1
  1451  1933  1935    1
  1452  1933  1936    1
  1453  1937  1938    1
  1454  1937  1939    1
  1455  1937  1940    1
  1456  1941  1942    1
  1457  1941  1943    1
  1458  1941  1944    1
  1459  1945  1946    1
  1460  1945  1947    1
  1461  1945  1948    1
  1462  1949  1950    1
  1463  1949  1951    1
  1464  1949  1952    1
  1465  1953  1954    1
  1466  1953  1955    1
  1467  1953  1956    1
  1468  1957  1958    1
  1469  1957  1959    1
  1470  1957  1960    1
  1471  1961  1962    1
  1472  1961  1963    1
  1473  1961  1964    1
  1474  1965  1966    1
  1475  1965  1967    1
  1476  1965  1968    1
  1477  1969  1970    1
  1478  1969  1971    1
  1479  1969  1972    1
  1480  1973  1974    1
  1481  1973  1975    1
  1482  1973  1976    1
  1483  1977  1978    1
  1484  1977  1979    1
  1485  1977  1980    1
  1486  1981  1982    1
  1487  1981  1983    1
  1488  1981  1984    1
  1489  1985  1986    1
  1490  1985  1987    1
  1491  1985  1988    1
  1492  1989  1990    1
  1493  1989  1991    1
  1494  1989  1992    1
  1495  1993  1994    1
  1496  1993  1995    1
  1497  1993  1996    1
  1498  1997  1998    1
  1499  1997  1999    1
  1500  1997  2000    1
  1501  2001  2002    1
  1502  2001  2003    1
  1503  2001  2004    1
  1504  2005  2006    1
  1505  2005  2007    1
  1506  2005  2008    1
  1507  2009  2010    1
  1508  2009  2011    1
  1509  2009  2012    1
  1510  2013  2014    1
  1511  2013  2015    1
  1512  2013  2016    1
  1513  2017  2018    1
  1514  2017  2019    1
  1515  2017  2020    1
  1516  2021  2022    1
  1517  2021  2023    1
  1518  2021  2024    1
  1519  2025  2026    1
  1520  2025  2027    1
  1521  2025  2028    1
  1522  2029  2030    1
  1523  2029  2031    1
  1524  2029  2032    1
  1525  2033  2034    1
  1526  2033  2035    1
  1527  2033  2036    1
  1528  2037  2038    1
  1529  2037  2039    1
  1530  2037  2040    1
  1531  2041  2042    1
  1532  2041  2043    1
  1533  2041  2044    1
  1534  2045  2046    1
  1535  2045  2047    1
  1536  2045  2048    1
  1537  2049  2050    1
  1538  2049  2051    1
  1539  2049  2052    1
  1540  2053  2054    1
  1541  2053  2055    1
  1542  2053  2056    1
  1543  2057  2058    1
  1544  2057  2059    1
  1545  2057  2060    1
  1546  2061  2062    1
  1547  2061  2063    1
  1548  2061  2064    1
  1549  2065  2066    1
  1550  2065  2067    1
  1551  2065  2068    1
  1552  2069  2070    1
  1553  2069  2071    1
  1554  2069  2072    1
  1555  2073  2074    1
  1556  2073  2075    1
  1557  2073  2076    1
  1558  2077  2078    1
  1559  2077  2079    1
  1560  2077  2080    1
  1561  2081  2082    1
  1562  2081  2083    1
  1563  2081  2084    1
  1564  2085  2086    1
  1565  2085  2087    1
  1566  2085  2088    1
  1567  2089  2090    1
  1568  2089  2091    1
  1569  2089  2092    1
  1570  2093  2094    1
  1571  2093  2095    1
  1572  2093  2096    1
  1573  2097  2098    1
  1574  2097  2099    1
  1575  2097  2100    1
  1576  2101  2102    1
  1577  2101  2103    1
  1578  2101  2104    1
  1579  2105  2106    1
  1580  2105  2107    1
  1581  2105  2108    1
  1582  2109  2110    1
  1583  2109  2111    1
  1584  2109  2112    1
  1585  2113  2114    1
  1586  2113  2115    1
  1587  2113  2116    1
  1588  2117  2118    1
  1589  2117  2119    1
  1590  2117  2120    1
  1591  2121  2122    1
  1592  2121  2123    1
  1593  2121  2124    1
  1594  2125  2126    1
  1595  2125  2127    1
  1596  2125  2128    1
  1597  2129  2130    1
  1598  2129  2131    1
  1599  2129  2132    1
  1600  2133  2134    1
  1601  2133  2135    1
  1602  2133  2136    1
  1603  2137  2138    1
  1604  2137  2139    1
  1605  2137  2140    1
  1606  2141  2142    1
  1607  2141  2143    1
  1608  2141  2144    1
  1609  2145  2146    1
  1610  2145  2147    1
  1611  2145  2148    1
  1612  2149  2150    1
  1613  2149  2151    1
  1614  2149  2152    1
  1615  2153  2154    1
  1616  2153  2155    1
  1617  2153  2156    1
  1618  2157  2158    1
  1619  2157  2159    1
  1620  2157  2160    1
  1621  2161  2162    1
  1622  2161  2163    1
  1623  2161  2164    1
  1624  2165  2166    1
  1625  2165  2167    1
  1626  2165  2168    1
  1627  2169  2170    1
  1628  2169  2171    1
  1629  2169  2172    1
  1630  2173  2174    1
  1631  2173  2175    1
  1632  2173  2176    1
  1633  2177  2178    1
  1634  2177  2179    1
  1635  2177  2180    1
  1636  2181  2182    1
  1637  2181  2183    1
  1638  2181  2184    1
  1639  2185  2186    1
  1640  2185  2187    1
  1641  2185  2188    1
  1642  2189  2190    1
  1643  2189  2191    1
  1644  2189  2192    1
  1645  2193  2194    1
  1646  2193  2195    1
  1647  2193  2196    1
  1648  2197  2198    1
  1649  2197  2199    1
  1650  2197  2200    1
  1651  2201  2202    1
  1652  2201  2203    1
  1653  2201  2204    1
  1654  2205  2206    1
  1655  2205  2207    1
  1656  2205  2208    1
  1657  2209  2210    1
  1658  2209  2211    1
  1659  2209  2212    1
  1660  2213  2214    1
  1661  2213  2215    1
  1662  2213  2216    1
  1663  2217  2218    1
  1664  2217  2219    1
  1665  2217  2220    1
  1666  2221  2222    1
  1667  2221  2223    1
  1668  2221  2224    1
  1669  2225  2226    1
  1670  2225  2227    1
  1671  2225  2228    1
  1672  2229  2230    1
  1673  2229  2231    1
  1674  2229  2232    1
  1675  2233  2234    1
  1676  2233  2235    1
  1677  2233  2236    1
  1678  2237  2238    1
  1679  2237  2239    1
  1680  2237  2240    1
  1681  2241  2242    1
  1682  2241  2243    1
  1683  2241  2244    1
  1684  2245  2246    1
  1685  2245  2247    1
  1686  2245  2248    1
  1687  2249  2250    1
  1688  2249  2251    1
  1689  2249  2252    1
  1690  2253  2254    1
  1691  2253  2255    1
  1692  2253  2256    1
  1693  2257  2258    1
  1694  2257  2259    1
  1695  2257  2260    1
  1696  2261  2262    1
  1697  2261  2263    1
  1698  2261  2264    1
  1699  2265  2266    1
  1700  2265  2267    1
  1701  2265  2268    1
  1702  2269  2270    1
  1703  2269  2271    1
  1704  2269  2272    1
  1705  2273  2274    1
  1706  2273  2275    1
  1707  2273  2276    1
  1708  2277  2278    1
  1709  2277  2279    1
  1710  2277  2280    1
  1711  2281  2282    1
  1712  2281  2283    1
  1713  2281  2284    1
  1714  2285  2286    1
  1715  2285  2287    1
  1716  2285  2288    1
  1717  2289  2290    1
  1718  2289  2291    1
  1719  2289  2292    1
  1720  2293  2294    1
  1721  2293  2295    1
  1722  2293  2296    1
  1723  2297  2298    1
  1724  2297  2299    1
  1725  2297  2300    1
  1726  2301  2302    1
  1727  2301  2303    1
  1728  2301  2304    1
  1729  2305  2306    1
  1730  2305  2307    1
  1731  2305  2308    1
  1732  2309  2310    1
  1733  2309  2311    1
  1734  2309  2312    1
  1735  2313  2314    1
  1736  2313  2315    1
  1737  2313  2316    1
  1738  2317  2318    1
  1739  2317  2319    1
  1740  2317  2320    1
  1741  2321  2322    1
  1742  2321  2323    1
  1743  2321  2324    1
